<?xml version="1.0" encoding="UTF-8"?>

<!-- generated on 2025-04-14 20:45:45 by Eclipse SUMO duarouter Version 1.21.0
<duarouterConfiguration xmlns:xsi="http://www.w3.org/2001/XMLSchema-instance" xsi:noNamespaceSchemaLocation="http://sumo.dlr.de/xsd/duarouterConfiguration.xsd">

    <input>
        <net-file value="athens-osmWebWizard\osm.net.xml.gz"/>
        <additional-files value="athens-osmWebWizard\vtypes.xml"/>
        <route-files value="fixed-flows.rou.xml"/>
    </input>

    <output>
        <output-file value="fixed-routes.rou.xml"/>
    </output>

</duarouterConfiguration>
-->

<routes xmlns:xsi="http://www.w3.org/2001/XMLSchema-instance" xsi:noNamespaceSchemaLocation="http://sumo.dlr.de/xsd/routes_file.xsd"/>
