<routes>
    <!-- Standard passenger car red color -->
    <vType id="car_red" vClass="passenger" accel="2.6" decel="4.5" sigma="0.5"
           length="5.0" minGap="2.5" maxSpeed="55.55" emissionClass="HBEFA3/PC_G_EU4" color="255,0,0"/>

    <!-- Standard passenger car green color -->
    <vType id="car_green" vClass="passenger" accel="2.6" decel="4.5" sigma="0.5"
           length="5.0" minGap="2.5" maxSpeed="55.55" emissionClass="HBEFA3/PC_G_EU4" color="0,255,0"/>

    <flow id="trip1-routeA" type="car_red" begin="0" period="600" number="60"
          from="23182962" to="169130585" via="260124786#0 1209362820 299645496" />
    <flow id="trip1-routeB" type="car_green" begin="0" period="600" number="60"
          from="23182962" to="169130585" via="299506410#0 221139568 -820421378#1" />
</routes>