<?xml version="1.0" encoding="UTF-8"?>

<!-- generated on 2025-04-13 18:06:25.083110 by randomTrips.py UNKNOWN
<configuration>
    <net-file value="athens-osmWebWizard\osm.net.xml.gz"/>
    <output-trip-file value="train-trips.rou.xml"/>
    <route-file value="train-routes.rou.xml"/>
    <edge-param value="main"/>
    <end value="36000.0"/>
    <period value="12.0 6.0 2.0 2.4 4.0 12.0 6.0 2.0 3.0 4.0"/>
</configuration>
-->

<!-- generated on 2025-04-13 18:06:24 by Eclipse SUMO duarouter Version 1.21.0
<duarouterConfiguration xmlns:xsi="http://www.w3.org/2001/XMLSchema-instance" xsi:noNamespaceSchemaLocation="http://sumo.dlr.de/xsd/duarouterConfiguration.xsd">

    <input>
        <net-file value="athens-osmWebWizard\osm.net.xml.gz"/>
        <route-files value="train-trips.rou.xml"/>
    </input>

    <output>
        <output-file value="train-routes.rou.xml"/>
        <alternatives-output value="NUL"/>
    </output>

    <time>
        <begin value="0.0"/>
        <end value="36000.0"/>
    </time>

    <report>
        <no-warnings value="true"/>
        <ignore-errors value="true"/>
        <no-step-log value="true"/>
    </report>

</duarouterConfiguration>
-->

<routes xmlns:xsi="http://www.w3.org/2001/XMLSchema-instance" xsi:noNamespaceSchemaLocation="http://sumo.dlr.de/xsd/routes_file.xsd">
    <vehicle id="0" depart="0.00">
        <route edges="50033410#0 -50033410#0 -1270889032#1 30481589#0 565176311 687830221#0 -30481514#2 -30481514#0 50239848#2 298982651 65388539#0 65388539#2 65388539#4 -238865258#4 -238865258#3 -238865258#2 -238865258#1"/>
    </vehicle>
    <vehicle id="1" depart="12.00">
        <route edges="23182833#0 299644700#7 23182837#0 23182837#2 734707701#3 734707701#6 734707701#7 734707701#9 299510181#0 299510181#3 299510181#5 299510181#8 259803255#0 259803255#2 601290889#0 601290889#4 601290889#6 601290889#8 601303883#0 299658207 49288906 10971766#0 10971766#2 10741747#0 260824573#0 260824573#3 189099793"/>
    </vehicle>
    <vehicle id="2" depart="24.00">
        <route edges="601303882#9 23183922#0 636473899#9 636473899#10 636473899#12 52493436#8"/>
    </vehicle>
    <vehicle id="3" depart="36.00">
        <route edges="789786771#0 32296802#0 820421379 -909651173#2 -909651172 -972690317 23184093#0 23184093#3 23184093#4 23184108#2 50033481 224026879 23184127 23184128 559496353#0 298982738#0 583800482 85692476#0 85692476#1 85692476#2 85692476#3 32015643#0 299662400#0 299662400#2 299662400#3 299662400#4 26992536#0 -23184213#2 -23184213#1 -23184213#0 -224026845#1 -677284299#5"/>
    </vehicle>
    <vehicle id="4" depart="48.00">
        <route edges="286067599#2 -286067599#4 -286067599#1 711888497#0 299654833#0 52493739#0 23183970#0 52493742 52493741#0 23183271#0 168914464#0 23183273#0 380901379#0 32015255#0 32015255#4 571469975#0 571469975#3 741245822#0 741245822#1 741245823#0 741245823#2 741245823#3 741245823#4 741245823#5 601290887#0 601290887#1 601290887#2 601290887#3 601290887#4 601290887#5 601290887#6 601290887#7 482987489#0 482987489#2 32015489#0 32015489#1 98350931#1 98350931#2 677284299#4 224026845#0 23184213#0 23184213#1 23184213#2 -26992536#1"/>
    </vehicle>
    <vehicle id="5" depart="60.00">
        <route edges="175509069#6 98350931#0 98350931#1 32015499#1 32015499#2 98350944#0 98350944#1 634252645#7 634252645#9 634252645#12 634252645#13 634252645#14 634252645#15 634252645#16 32015397#2 32015397#5 32015397#6"/>
    </vehicle>
    <vehicle id="6" depart="72.00">
        <route edges="-23184213#0 23184213#0 23184213#1 23184213#2 -26992536#1 -299662400#4 -299662400#3 -299662400#2 -299662400#1 -32015643#1 -85692476#3 -85692476#2 -85692476#1 -85692476#0 -583800482 -298982738#2 -559496353#1 749190996 -224026880 -224026879 -52493490#2 -52493490#1 -52493490#0 -23184115 52493502#0 170644475#0 169130585 734708564#0 659991805#0 922515461#0 661575900#0 169130571"/>
    </vehicle>
    <vehicle id="7" depart="84.00">
        <route edges="51249283 225906204#0 225906203 -168904430 23183371#0 23183371#4 260124786#0 260124786#2 168914459#0 751068056 168914458#0 299510529#0 299644700#0 299644700#2 299644700#5 299644700#7 299644700#8 23182848#0 23182848#2 1102900327#0 1209362820 -1210315343 391433166#0 391433166#3 -573760699#3 -573760699#0 -23184151#1 299645496 50033481 224026879 23184127 23184128 559496353#0 298982738#0 583800482 85692476#0 85692476#1 85692476#2 85692476#3 32015643#0"/>
    </vehicle>
    <vehicle id="8" depart="96.00">
        <route edges="188660571 188660570 601290887#5 32015504#0 634252645#13 634252645#14 634252645#15 634252645#16 299514252#0 299514252#1 299514252#2 299514252#4 299514252#5 299514252#6 299514252#9 299514252#10 299514252#13 61093639#0 571469976#0 762793106#0 762793106#2 762793106#3 762793106#5 1053955140#0 1053955141 299657353#0 299657353#1 299657353#2 299657353#4 50033294#3 1209362820 -1210315343 391433166#0"/>
    </vehicle>
    <vehicle id="9" depart="108.00">
        <route edges="661482437 167920332#1 221211079 23184115 52493490#0 52493490#1 52493490#2 224026879 23184127 23184128 559496353#0 1270889032#0 -1215279323"/>
    </vehicle>
    <vehicle id="10" depart="120.00">
        <route edges="660659126#0 -660659126#0 -23184125 167920332#1 221211079 52493502#0 170644475#0 52493497#0 909651168 789786774 909651173#0 820421378#0 909651169 909651170#0 295056184#0 972690968#0 49288908#0 734707701#2 734707701#3 734707701#6 734707701#7 734707701#9 299510181#0 299510181#3 299510181#5 32015255#4 571469975#0 571469975#3"/>
    </vehicle>
    <vehicle id="11" depart="132.00">
        <route edges="23184102#0 -238865258#0 -23184105#1 789786774 909651173#0 820421378#0 909651169 909651170#0 295056184#0 972690968#0 49288908#0 734707701#2 734707701#3 734707701#6 734707701#7 734707701#9 299510181#0 299510181#3 299510181#5 299510181#8 259803254#0 168914460 704293238 23183369#0 1098886968#0 10976954#0 286067598#0 286067598#1 286067598#2 10976958#0 10976958#1"/>
    </vehicle>
    <vehicle id="12" depart="144.00">
        <route edges="909651169 909651170#0 -909651170#1 -909651169 -820421378#1 -909651173#2 -909651172 -972690317 23184093#0 23184093#3"/>
    </vehicle>
    <vehicle id="13" depart="156.00">
        <route edges="-677284299#0 32015487#0 -32015475#1 -32015475#0 677284299#1 677284299#4 224026845#0 23184213#0 23184213#1 23184213#2 -26992536#1 -299662400#4 -299662400#3 -299662400#2 -299662400#1 -32015643#1 -85692476#3 -85692476#2 -85692476#1 -85692476#0 33878526#0 687830215#0 687830223#0 687830223#2 30481504#0 98198124#0 -81151737#1"/>
    </vehicle>
    <vehicle id="14" depart="168.00">
        <route edges="704293239#0 299506410#0 23183808#0 207979566#0 23182796#0 23182796#3 734707701#9 299510181#0 299510181#3 299510181#5 32015255#4 571469975#0 571469975#3 741245822#0 741245822#1 741245823#0 741245823#2 741245823#3 741245823#4 741245823#5 40560443#0 40560443#2"/>
    </vehicle>
    <vehicle id="15" depart="180.00">
        <route edges="660659126#1 -660659126#1 -660659126#0 -23184125 167920332#1 221211079 52493502#0 170644475#0 52493497#0 909651168 789786774 909651173#0 820421378#0 909651169 909651170#0 295056184#0 972690968#0 49288908#0 734707701#2 734707701#3 734707701#6 734707701#7 734707701#9 299510181#0 299510181#3 299510181#5 299510181#8 259803255#0 259803255#2 601290889#0 601290889#4"/>
    </vehicle>
    <vehicle id="16" depart="192.00">
        <route edges="32015610#2 32015617 32015612#2 299665378#0 299665378#2 573760702#0 573760702#1 573760702#2 63122294 26992536#0 -23184213#2 -23184213#1 -23184213#0 -224026845#1 32015499#0 32015499#1 32015499#2 98350944#0 98350944#1 634252645#7 634252645#9 634252645#12 634252645#13 634252645#14 634252645#15 634252645#16 299514252#0 299514252#1 299514252#2 299514252#4 299514252#5 299514252#6 299514252#9 299514252#10 299514252#13 299514252#16 259803254#0 168914460 704293238 23183369#0 1098886968#0 10976954#0 286067598#0 286067598#1 280005151#5 280005151#8 978939565#0"/>
    </vehicle>
    <vehicle id="17" depart="204.00">
        <route edges="23216375#0 318678267#9 318678267#13 86438973#0 86438974#0 -286067599#11 -286067599#7 -286067599#6 -286067599#4 -286067599#1 -742016387#4 286067598#0 286067598#1 286067598#2 10976958#0 10976958#1 670872012#0 280005152#0 725187180 298298663#0 23182962 32295538#0 189063911#0 24218743 977757273 762514801#0 762514801#3 741733384#0 222897513#0 222941080#6 32245113#0"/>
    </vehicle>
    <vehicle id="18" depart="216.00">
        <route edges="677284299#1 677284299#4 32015499#0 32015499#1 32015499#2 98350944#0 98350944#1 634252645#7 634252645#9 634252645#12 634252645#13 634252645#14 634252645#15 634252645#16 299514252#0 299514252#1 299514252#2 40560443#2 634252646#11 46938927#0 46938927#1"/>
    </vehicle>
    <vehicle id="19" depart="228.00">
        <route edges="741033483 82682796#0 82682796#1 384593007 284503674#0 972965170#0 32245113#0 32295798#0 23182806#0 52493441#0 52493436#0 52493436#5 52493436#8 52493436#12 260124786#0 260124786#2 168914459#0 751068056 168914458#0 299510529#0 299644700#0 299644700#2 299644700#5 299644700#7 299644700#8 23182848#0 23182848#2 1102900327#0 1209362820 -1210315343 391433166#0 391433166#3 -573760699#3 -573760699#0 -23184151#1 299645496 50033481 224026879 23184127 23184128 559496353#0 298982738#0 583800482 33878526#0"/>
    </vehicle>
    <vehicle id="20" depart="240.00">
        <route edges="601290886#2 60958842#1 60958842#2 659950579#0 601290887#2 601290887#3 601290887#4 601290887#5 601290887#6 32015478#0 32015478#1 98350957 482987486#2 482987486#3 698363912#5 32015487#0 -32015475#1 -32015475#0"/>
    </vehicle>
    <vehicle id="21" depart="252.00">
        <route edges="207891571#0 23183371#0 23183371#4 260124786#0 260124786#2 168914459#0 32015255#0 32015255#4 571469976#0 762793106#0 762793106#2 762793106#3 762793106#5 1053955140#0 1053955141 23182843#6 23182843#8"/>
    </vehicle>
    <vehicle id="22" depart="264.00">
        <route edges="-52493490#0 -23184115 52493502#0 170644475#0 52493497#0 909651168 789786774 909651173#0 820421378#0 909651169 909651170#0 295056184#0 259803253 830255108#0 170993800#0 227444705#0 167920360#0 167920360#1 23182965#0 207979569#0 207979569#3"/>
    </vehicle>
    <vehicle id="23" depart="276.00">
        <route edges="-717328985#3 -715534866 715534866 717328985#0 -286067599#11 -286067599#7 -286067599#6 -286067599#4 -286067599#1 711888497#0 299654833#0 52493739#0 23183970#0 52493742 52493741#0 704293239#0 299506410#0 23183808#0 207979566#0 23182796#0 23182796#3 23182796#5 803344980#0 1053955141 299657353#0 299657353#1 23182837#8 23182837#10"/>
    </vehicle>
    <vehicle id="24" depart="288.00">
        <route edges="49288908#0 734707701#2 23182837#4 299657353#2 23184187#6"/>
    </vehicle>
    <vehicle id="25" depart="300.00">
        <route edges="23184213#2 -26992536#1 -299662400#4 -299662400#3 -299662400#2 -299662400#1 -32015643#1 -85692476#3 -85692476#2 -85692476#1 -85692476#0 -583800482 -298982738#2 -559496353#1 749190996 -224026880 -224026879 -52493490#2 -52493490#1 -52493490#0 -23184115 52493502#0 170644475#0 52493497#0 909651168 789786774 909651173#0 820421378#0 909651169 909651170#0 295056184#0 259803253 830255108#0 170993800#0"/>
    </vehicle>
    <vehicle id="26" depart="312.00">
        <route edges="227444705#0 167920360#0 167920360#1 23182965#0 207979569#0 299510530#4 299506410#0 207979572#0 23182767#0 23182990#0 221139568 87082469"/>
    </vehicle>
    <vehicle id="27" depart="324.00">
        <route edges="504172673#2 -504172673#3 -504172673#1 50239829 23184198#0 23184198#1 132737109#0 -30481589#2 298982738#0 448630611"/>
    </vehicle>
    <vehicle id="28" depart="336.00">
        <route edges="1102900327#0 295059515 23184181#0 295056184#0 972690968#0 49288908#0 734707701#2 734707701#3 734707701#6 734707701#7 734707701#9 299510181#0 299510181#3 299510181#5 299510181#8 259803255#0 259803255#2 601290889#0"/>
    </vehicle>
    <vehicle id="29" depart="348.00">
        <route edges="10976967#0 10976954#0 742016387#0 711888497#0 299654833#0 52493739#0 23183970#0 52493742 52493741#0 704293239#0 299506410#0 23183808#0 207979566#0 23182796#0 23182796#3 23182796#5 803344980#0 1053955141 299657353#0 299657353#1 23182837#8 23182837#10 393398563#1 393398563#3 393398563#4 81713135 391433168#1 391433168#2 98198128#1 98198128#2 896087076#0 896087076#1 23183961#0 50239829 23184198#0 23184198#1 30481514#2 687830221#1 98198134#0 233993890"/>
    </vehicle>
    <vehicle id="30" depart="360.00">
        <route edges="98350942#0 32015499#2 98350944#0 98350944#1 634252645#7 634252645#9 634252645#12 634252645#13 634252645#14 634252645#15 634252645#16 299514252#0 299514252#1 299514252#2 299514252#4 299514252#5 299514252#6 299514252#9 299514252#10 299514252#13 299514252#16 259803255#0 259803255#2 601290889#0 601290889#4 601290889#6 601290889#8 601303883#0 299658207 49288906 10971766#0 10971766#2 10741747#0 222897513#0 222897513#4 50004618#0"/>
    </vehicle>
    <vehicle id="31" depart="372.00">
        <route edges="32357772#0 168737311#3 32295709 207971475#0 207971475#1 284241336#0 284241336#5 52493742 52493741#0 704293239#0 299506410#0 23183808#0 207979566#0 299644700#0 299644700#2 299644700#5 299644700#7 299644700#8 23182848#0 23182848#2 1102900327#0 1209362820 -1210315343 391433166#0 391433166#3 -573760699#3 -573760699#0 -23184151#1 299645496 50033481 -52493490#2 52493490#2"/>
    </vehicle>
    <vehicle id="32" depart="384.00">
        <route edges="698363912#5 32015487#0 32015487#1 32015479#3 482987487 601290887#7 482987489#0 98350944#0 98350944#1 634252645#7 634252645#9 634252645#12 634252645#13 634252645#14 634252645#15 634252645#16 299514252#0 299514252#1 299514252#2 299514252#4 299514252#5 299514252#6 282433111#2 634252646#7"/>
    </vehicle>
    <vehicle id="33" depart="396.00">
        <route edges="207971475#0 207971475#1 284241336#0 1098886968#0 10976954#0 742016387#0 286067599#0 286067599#2 286067599#6 286067599#7 286067599#8 -286067599#11"/>
    </vehicle>
    <vehicle id="34" depart="408.00">
        <route edges="23183949#1 23183949#2 23183949#3 23183949#4 23183949#5 23183949#6 23183949#7 23183949#10 282433111#6 753627408#0 753627408#1 226869337#0"/>
    </vehicle>
    <vehicle id="35" depart="420.00">
        <route edges="170644476#0 99060957#0 170644475#0 52493497#0 909651168 789786774 909651173#0 909652220 789786775#1 789786775#3 789786775#4 789786775#5 391433168#0 391433168#1 391433168#2 98198128#1 98198128#2 896087076#0 896087075 892605848"/>
    </vehicle>
    <vehicle id="36" depart="432.00">
        <route edges="753627408#0 753627408#1 226869337#0 70689748#0 70689748#2 23184216#0 23184216#2 23183949#14 23183949#15 23183949#17 23183949#18 23183949#22 23183949#24 23183940#0"/>
    </vehicle>
    <vehicle id="37" depart="444.00">
        <route edges="51249544#0 636742500#0 636742500#3 23183960#0 23183960#1 393398564#0 393398564#1 393398564#3 734707701#6 734707701#7 734707701#9 299510181#0 299510181#3 299510181#5 299510181#8 259803255#0 259803255#2 601290889#0 601290889#4 601290889#6 601290889#8 601303883#0 299658207 49288906 10971766#0 10971766#2 10741747#0 260824573#0 260824573#3"/>
    </vehicle>
    <vehicle id="38" depart="456.00">
        <route edges="82682785#1 222941080#0 222941080#3 222941080#6 32245113#0 32295798#0 23182806#0 52493441#0 52493436#0 52493436#5 52493436#8 52493436#12 260124786#0 260124786#2 168914459#0 751068056 168914458#0 299510529#0 299644700#0 299644700#2 299644700#5 299644700#7"/>
    </vehicle>
    <vehicle id="39" depart="468.00">
        <route edges="225906203 284241337#0 1101347640#0 189063911#0 24218743 977757273 762514801#0 762514801#3 741733384#0 260824573#0 260824573#3 189099792#0 222941080#0 222941080#3"/>
    </vehicle>
    <vehicle id="40" depart="480.00">
        <route edges="32357785#1 32357785#2 601303882#0 601303882#3 52493436#5 52493436#8 52493436#12 260124786#0 260124786#2 168914459#0 32015255#0 32015255#4 571469975#0 571469975#3 741245822#0 741245822#1 741245823#0 741245823#2 741245823#3 741245823#4 741245823#5 601290887#0 601290887#1 601290887#2 601290887#3 601290887#4 601290887#5 32015504#0 32015504#2 32015504#4 224027126"/>
    </vehicle>
    <vehicle id="41" depart="492.00">
        <route edges="384593009 284503674#0 972965170#0 32245113#0 32295798#0 23182806#0 52493441#0 52493436#0 52493436#5 52493436#8 52493436#12 260124786#0 260124786#2 168914459#0 751068056 168914458#0 299510529#0 299644700#0 299644700#2 299644700#5 299644700#7 299644700#8 298828555#0 -917873078 -259803253 -972690969 -909651170#1 -909651169 -820421378#1 -909651173#2 909651173#0 909652220 789786775#1 789786775#3"/>
    </vehicle>
    <vehicle id="42" depart="504.00">
        <route edges="27362980#0 762793105#0 299510181#5 32015255#4 571469975#0 571469975#3 741245822#0 741245822#1 741245823#0 741245823#2 741245823#3 741245823#4 741245823#5 601290887#0 601290887#1 601290887#2 601290887#3 60958845#6 188660573"/>
    </vehicle>
    <vehicle id="43" depart="516.00">
        <route edges="98350968#0 188660571 188660570 601290887#5 32015504#0 634252645#13 634252645#14 634252645#15 634252645#16 299514252#0 299514252#1 299514252#2 40560443#2 40560443#6 601290890#0 601290890#2 32015463#0 32015463#1"/>
    </vehicle>
    <vehicle id="44" depart="528.00">
        <route edges="-660659126#0 23184111 52493490#0 52493490#1 52493490#2 224026879 23184127 23184128 559496353#0 298982738#0 583800482 85692476#0 85692476#1 85692476#2 85692476#3 32015643#0 299662400#0 299662400#2 299662400#3 299662400#4 26992536#0 -23184213#2 -23184213#1 -23184213#0 -224026845#1 -677284299#5 -677284299#2 32015475#0 32015475#1 -32015475#1"/>
    </vehicle>
    <vehicle id="45" depart="540.00">
        <route edges="-85692476#0 85692476#0 85692476#1 85692476#2 85692476#3 32015643#0 299662400#0 299662400#2 299662400#3 299662400#4 26992536#0 -23184213#2 -23184213#1 -23184213#0 -224026845#1 -677284299#5 32015479#0 32015479#3 482987486#0"/>
    </vehicle>
    <vehicle id="46" depart="552.00">
        <route edges="636757315#1 299514252#16 259803254#0 168914460 704293238 23183369#0 1098886968#0 10976954#0 742016387#0 286067599#0 286067599#2 286067599#6"/>
    </vehicle>
    <vehicle id="47" depart="564.00">
        <route edges="-448640113 448640113 -299662400#1 -32015643#1 -85692476#3 -85692476#2 -85692476#1 -85692476#0 33878526#0 687830215#0 -30481514#3 -30481514#2 -30481514#0 50239848#2 298982651 65388539#0 65388539#2 65388539#4 -238865258#4 -238865258#3 -238865258#2 238865258#2"/>
    </vehicle>
    <vehicle id="48" depart="576.00">
        <route edges="98350946 98350928#0 98350928#1 601290887#5 32015504#0 32015504#2 32015504#4"/>
    </vehicle>
    <vehicle id="49" depart="588.00">
        <route edges="977757276 760848368#0 742016387#0 711888497#0 299654833#0 52493739#0 23183970#0 52493742 52493741#0 704293239#0 299506410#0 23183808#0 207979566#0 299644700#0 299644700#2 299644700#5 299644700#7 23182837#0 23182837#2 734707701#3"/>
    </vehicle>
    <vehicle id="50" depart="600.00">
        <route edges="-170993800#2 -917873078 -259803253 972690968#0 49288908#0 734707701#2 734707701#3 734707701#6 734707701#7 734707701#9 299510181#0 299510181#3 299510181#5 32015255#4 571469975#0 571469975#3 741245822#0 741245822#1 741245823#0 741245823#2 741245823#3 741245823#4 741245823#5 601290887#0 601290887#1 601290887#2 601290887#3 601290887#4"/>
    </vehicle>
    <vehicle id="51" depart="612.00">
        <route edges="52493497#0 23184093#0 23184093#3 23184093#4 23184108#2 50033481 224026879 23184127 23184128 559496353#0 298982738#0 583800482 85692476#0 85692476#1 85692476#2 85692476#3 32015643#0 299662400#0 299662400#2 299662400#3 299662400#4 26992536#0 224026847 224026850#0 224026850#1 32015610#0 32015610#1 32015610#2"/>
    </vehicle>
    <vehicle id="52" depart="624.00">
        <route edges="227444705#0 167920360#0 23182833#0 299644700#7 299644700#8 23182848#0 23182848#2 1102900327#0 1209362820 -1210315343 1210315343 50033294#0"/>
    </vehicle>
    <vehicle id="53" depart="636.00">
        <route edges="-85692476#2 -85692476#1 -85692476#0 33878526#0 687830215#0 -30481514#3 -30481514#2 -30481514#0 50239848#2 298982651 65388539#0 65388539#2 65388539#4 98198128#0 98198128#1 98198128#2 23184195 23184187#0 23184187#2 23184187#3 23184187#6 734707701#2 734707701#3 393398564#8 393398564#10 299644700#5 299644700#7 299644700#8 298828555#0"/>
    </vehicle>
    <vehicle id="55" depart="660.00">
        <route edges="751068056 80404724#0 299510181#3 299510181#5 32015255#4 571469975#0 571469975#3 741245822#0 741245822#1 741245823#0 741245823#2 741245823#3 741245823#4 741245823#5 601290887#0 601290887#1 601290887#2 601290887#3 601290887#4 601290887#5 32015504#0 32015504#2 32015504#4 224027126"/>
    </vehicle>
    <vehicle id="56" depart="672.00">
        <route edges="32015255#4 571469976#0 762793106#0 762793106#2 762793106#3 23182798#0 299510180#0 299510529#0 299644700#0 299644700#2 299644700#5 299644700#7 299644700#8 298828555#0 -917873078 -259803253 -972690969 -909651170#1 -909651169 -820421378#1 -909651173#2 -909651172 -972690317 284174992#0 169130585 734708564#0 659991805#0 922515461#0 132654901#0 132654901#2"/>
    </vehicle>
    <vehicle id="57" depart="684.00">
        <route edges="820421379 820421378#0 909651169 909651170#0 295056184#0 972690968#0 49288908#0 734707701#2 734707701#3 734707701#6 734707701#7 734707701#9 299510181#0 299510181#3 299510181#5 32015255#4 571469975#0 571469975#3 741245822#0 741245822#1 741245823#0"/>
    </vehicle>
    <vehicle id="58" depart="696.00">
        <route edges="23183366#0 23183366#2 23183366#3 299514252#13 61093639#0 571469976#0 762793106#0 762793106#2 762793106#3 23182798#0 299510180#0 299510529#0 299644700#0 299644700#2 299644700#5 299644700#7 299644700#8 23182848#0 23182848#2 49288908#0"/>
    </vehicle>
    <vehicle id="59" depart="708.00">
        <route edges="448630611 98192081#1 98192081#2 -85692476#0 33878526#0 687830215#0 -30481514#3 -30481514#2 -30481514#0 50239848#2 298982651 65388539#0 65388539#2 65388539#4 98198128#0 98198128#1 98198128#2 23184195 23184187#0 23184187#2 23184187#3 23184187#6 734707701#2 734707701#3 734707701#6 734707701#7 734707701#9 299510181#0 80404724#4 80404724#9 80404724#11 881519850 10972181#0"/>
    </vehicle>
    <vehicle id="60" depart="720.00">
        <route edges="634252645#2 634252645#3 634252645#4 634252645#7 634252645#9 175509062#7 601290887#7 482987489#0 482987489#2 482987489#4 482987489#5 175509069#6 224026851#0 224026851#1 32015612#0"/>
    </vehicle>
    <vehicle id="61" depart="732.00">
        <route edges="636473899#21 636473899#23 634252644#0 634252644#2 634252644#4 634252644#6 32015463#0 32015463#1 32015463#2 32015537"/>
    </vehicle>
    <vehicle id="62" depart="744.00">
        <route edges="-10971769#0 10971769#0 10971769#1 10971769#2 601294009#0 70689748#0 70689748#2 23184216#0 23184216#2 23183949#14 23183949#15 23183949#17 23183949#18 23183949#22"/>
    </vehicle>
    <vehicle id="63" depart="756.00">
        <route edges="-23184105#1 23184105#0 238865258#0 238865258#1 23184108#1 23184108#2 50033481 224026879 23184127 23184128 559496353#0 298982738#0 583800482 85692476#0 85692476#1 85692476#2"/>
    </vehicle>
    <vehicle id="64" depart="768.00">
        <route edges="755022871#0 189099792#0 222941080#0 222941080#3 222941080#6 32245113#0 32295798#0 23182806#0 52493441#0 52493436#0 52493436#5 52493436#8 52493436#12 260124786#0 260124786#2 168914459#0 32015255#0 32015255#4 571469975#0 571469975#3 741245822#0 741245822#1 741245823#0 741245823#2 741245823#3 741245823#4 741245823#5 601290887#0 601290887#1 601290887#2 32015397#0 32015397#2 46938927#2 46938927#3 32015465#2 601290886#6 677284297#2"/>
    </vehicle>
    <vehicle id="65" depart="780.00">
        <route edges="23183808#0 207979566#0 23182796#0 23182796#3 734707701#9 299510181#0 299510181#3 299510181#5 32015255#4 571469975#0 571469975#3 741245822#0 741245822#1 741245823#0 741245823#2 741245823#3 741245823#4 741245823#5 601290887#0 601290887#1 601290887#2 -435483342"/>
    </vehicle>
    <vehicle id="66" depart="792.00">
        <route edges="753627408#1 226869337#0 298383050#0 298383050#1 298383050#2 52080450 52080446#0 52080446#1 741721487#0 311408820#0 311408820#5 311408820#8 168737311#0 168737311#3 32295709 207971475#0 207971475#1 284241336#0 1098886968#0 10976954#0 742016387#0 286067599#0 -193384535 909129701#0 909129701#1 899624046"/>
    </vehicle>
    <vehicle id="67" depart="804.00">
        <route edges="-583800482 -298982738#2 1270889032#0 50033410#0 50033410#1 30481654#0 448630612#2 30481660#1"/>
    </vehicle>
    <vehicle id="68" depart="816.00">
        <route edges="-50033410#0 -1270889032#1 -559496353#1 749190996 -224026880 -224026879 -52493490#2 -52493490#1 -52493490#0 -23184115 52493502#0 170644475#0 52493497#0 909651168 789786774 909651173#0 820421378#0 909651169 909651170#0 295056184#0 972690968#0 49288908#0 734707701#2 734707701#3 734707701#6 734707701#7 734707701#9 299510181#0 299510181#3 299510181#5 299510181#8 259803255#0 259803255#2 601290889#0 601290889#4 601290889#6 636473899#21 636473899#23 634252644#0 634252644#2"/>
    </vehicle>
    <vehicle id="69" depart="828.00">
        <route edges="634252645#9 634252645#12 634252645#13 634252645#14 634252645#15 634252645#16 299514252#0 299514252#1 299514252#2 299514252#4 299514252#5 299514252#6 299514252#9 299514252#10 299514252#13 299514252#16 259803255#0 259803255#2 601290889#0 601290889#4 601290889#6 601290889#8 601303883#0 299658207 49288906 10971766#0 10971766#2 10741747#0 222897513#0 222941080#6 85392263#0 85392263#1 10741758#1 10741722#0 10741731#0"/>
    </vehicle>
    <vehicle id="70" depart="840.00">
        <route edges="299665378#2 573760702#0 573760702#1 573760702#2 63122294 -299662400#4 -299662400#3 -299662400#2 -299662400#1 -32015643#1 -85692476#3 -85692476#2 -85692476#1 -85692476#0 -583800482 -298982738#2 -559496353#1 749190996 -224026880 -224026879 -52493490#2 -52493490#1 -52493490#0 -23184115 52493502#0 170644475#0 169130585 734708564#0 659991805#0 922515461#0 132654901#0 -32039772#1 32039772#0"/>
    </vehicle>
    <vehicle id="71" depart="852.00">
        <route edges="225906204#0 225906203 -168904430 23183371#0 23183371#4 260124786#0 260124786#2 168914459#0 32015255#0 32015255#4 571469975#0 571469975#3 741245822#0 741245822#1 741245823#0 741245823#2 741245823#3"/>
    </vehicle>
    <vehicle id="72" depart="864.00">
        <route edges="286067599#6 -286067599#6 -286067599#4 -286067599#1 711888497#0 299654833#0 52493739#0 23183970#0 52493742 52493741#0 23183271#0 168914464#0 23183273#0 380901379#0 32015255#0 32015255#4 571469975#0 571469975#3 741245822#0 741245822#1 741245823#0 741245823#2 741245823#3 741245823#4 741245823#5 601290887#0 601290887#1 601290887#2 601290887#3 601290887#4 601290887#5 32015504#0 32015504#2 46938927#6 175509062#4"/>
    </vehicle>
    <vehicle id="73" depart="876.00">
        <route edges="32015612#1 32015612#2 299665378#0 299665378#2 573760702#0 573760702#1 573760702#2 63122294 26992536#0 -23184213#2 -23184213#1 -23184213#0 -224026845#1 32015499#0 32015499#1 32015499#2 98350944#0 98350944#1 634252645#7 634252645#9 634252645#12 634252645#13 634252645#14 634252645#15 634252645#16 299514252#0 299514252#1 299514252#2 299514252#4 299514252#5 299514252#6 299514252#9 299514252#10 299514252#13 299514252#16 259803255#0 259803255#2 601290889#0 601290889#4"/>
    </vehicle>
    <vehicle id="74" depart="888.00">
        <route edges="168914464#0 167907746#0 704293238 207891571#0 168904430 284241337#0 636473899#6 636473899#9 636473899#10 23183931"/>
    </vehicle>
    <vehicle id="75" depart="900.00">
        <route edges="98350944#7 -51249829#1 -51249829#0 175509062#3 175509062#4 175509062#7 601290887#7 482987489#0 482987489#2 32015489#0 32015489#1 98350931#1 98350931#2 677284299#4 224026845#0 23184213#0 23184213#1 23184213#2 -26992536#1 -299662400#4 -299662400#3 -299662400#2 -299662400#1 -32015643#1 -85692476#3 -85692476#2 -85692476#1 -85692476#0 -583800482 -298982738#2 -559496353#1 749190996 50239848#0"/>
    </vehicle>
    <vehicle id="76" depart="912.00">
        <route edges="298982651 65388539#0 65388539#2 65388539#4 98198128#0 98198128#1 98198128#2 896087076#0 896087075 23182843#10 393574947 393398562 32015189#0 51249532 65388538#0 65388538#2 65388538#3 803347418#0 698363912#5 698363912#7 677284299#1 32015479#0"/>
    </vehicle>
    <vehicle id="77" depart="924.00">
        <route edges="-972690317 909651168 789786774 909651173#0 820421378#0 909651169 909651170#0 295056184#0 972690968#0 49288908#0 734707701#2 734707701#3 734707701#6 734707701#7 734707701#9 299510181#0 299510181#3 299510181#5 299510181#8 259803254#0 168914460 704293238 23183369#0 1098886968#0 10976954#0 742016387#0 286067599#0 -193384535 193384535"/>
    </vehicle>
    <vehicle id="78" depart="936.00">
        <route edges="23184093#5 573760699#0 573760699#1 391433168#0 391433168#1 391433168#2 98198128#1 98198128#2 23184195 23184187#0 23184187#2 23184187#3 23184187#6 734707701#2 734707701#3 734707701#6 734707701#7 734707701#9 299510181#0 299510181#3 299510181#5 299510181#8 259803255#0 259803255#2 601290889#0 601290889#4 601290889#6 601290889#8 601303883#0 299658207 49288906 10971766#0 10971766#2 10741747#0 260824573#0 260824573#3 189099792#0 -82682785#1 -82682785#0 384593009"/>
    </vehicle>
    <vehicle id="79" depart="948.00">
        <route edges="207979566#0 23182796#0 23182796#3 734707701#9 299510181#0 299510181#3 299510181#5 299510181#8 259803255#0 259803255#2 601290889#0 601290889#4 601290889#6 601290889#8 601303883#0 299658207 49288906 10971766#0 10971766#2 311408820#8 168737311#0 168737311#3 189063911#0"/>
    </vehicle>
    <vehicle id="80" depart="960.00">
        <route edges="-50033410#3 30481654#0 30481654#1 85692476#3 32015643#0 299662400#0 299662400#2 299662400#3 299662400#4 26992536#0 -23184213#2 -23184213#1 -23184213#0 -224026845#1 -677284299#5 32015479#0 32015479#3 482987487"/>
    </vehicle>
    <vehicle id="81" depart="972.00">