<?xml version="1.0" encoding="UTF-8"?>

<!-- generated on 2025-05-04 22:20:54 by Eclipse SUMO duarouter Version 1.21.0
<duarouterConfiguration xmlns:xsi="http://www.w3.org/2001/XMLSchema-instance" xsi:noNamespaceSchemaLocation="http://sumo.dlr.de/xsd/duarouterConfiguration.xsd">

    <input>
        <net-file value="athens-osmWebWizard\osm.net.xml.gz"/>
        <route-files value="athens-osmWebWizard\drift-fixed.flows.xml"/>
    </input>

    <output>
        <output-file value="athens-osmWebWizard\drift-fixed.rou.xml"/>
    </output>

</duarouterConfiguration>
-->

<routes xmlns:xsi="http://www.w3.org/2001/XMLSchema-instance" xsi:noNamespaceSchemaLocation="http://sumo.dlr.de/xsd/routes_file.xsd">
    <vType id="car-red-rain" length="5.00" minGap="3.50" maxSpeed="33.33" speedFactor="0.80" vClass="passenger" emissionClass="HBEFA3/PC_G_EU4" color="red" accel="2.0" decel="4.0"/>
    <vehicle id="trip1-routeA.0" type="car-red-rain" depart="0.00">
        <route edges="23182962 189063912#0 207971475#0 636473899#0 636473899#6 636473899#9 636473899#10 636473899#12 52493436#8 52493436#12 260124786#0 260124786#2 168914459#0 751068056 168914458#0 299510529#0 299644700#0 299644700#2 299644700#5 299644700#7 299644700#8 23182848#0 23182848#2 1102900327#0 1209362820 -1210315343 391433166#0 391433166#3 -573760699#3 -573760699#0 -23184151#1 299645496 224026881#0 224026881#2 52493494#0 169130585"/>
    </vehicle>
    <vType id="car-green-rain" length="5.00" minGap="3.50" maxSpeed="33.33" speedFactor="0.80" vClass="passenger" emissionClass="HBEFA3/PC_G_EU4" color="green" accel="2.0" decel="4.0"/>
    <vehicle id="trip1-routeB.0" type="car-green-rain" depart="0.00">
        <route edges="23182962 189063912#0 207971475#0 207971475#1 284241336#0 284241336#5 52493742 52493741#0 704293239#0 299506410#0 207979572#0 23182767#0 23182990#0 221139568 23182816 -170993800#2 -917873078 -259803253 -972690969 -909651170#1 -909651169 -820421378#1 -909651173#2 -909651172 -972690317 284174992#0 169130585"/>
    </vehicle>
    <vehicle id="trip1-routeA.1" type="car-red-rain" depart="600.00">
        <route edges="23182962 189063912#0 207971475#0 636473899#0 636473899#6 636473899#9 636473899#10 636473899#12 52493436#8 52493436#12 260124786#0 260124786#2 168914459#0 751068056 168914458#0 299510529#0 299644700#0 299644700#2 299644700#5 299644700#7 299644700#8 23182848#0 23182848#2 1102900327#0 1209362820 -1210315343 391433166#0 391433166#3 -573760699#3 -573760699#0 -23184151#1 299645496 224026881#0 224026881#2 52493494#0 169130585"/>
    </vehicle>
    <vehicle id="trip1-routeB.1" type="car-green-rain" depart="600.00">
        <route edges="23182962 189063912#0 207971475#0 207971475#1 284241336#0 284241336#5 52493742 52493741#0 704293239#0 299506410#0 207979572#0 23182767#0 23182990#0 221139568 23182816 -170993800#2 -917873078 -259803253 -972690969 -909651170#1 -909651169 -820421378#1 -909651173#2 -909651172 -972690317 284174992#0 169130585"/>
    </vehicle>
    <vehicle id="trip1-routeA.2" type="car-red-rain" depart="1200.00">
        <route edges="23182962 189063912#0 207971475#0 636473899#0 636473899#6 636473899#9 636473899#10 636473899#12 52493436#8 52493436#12 260124786#0 260124786#2 168914459#0 751068056 168914458#0 299510529#0 299644700#0 299644700#2 299644700#5 299644700#7 299644700#8 23182848#0 23182848#2 1102900327#0 1209362820 -1210315343 391433166#0 391433166#3 -573760699#3 -573760699#0 -23184151#1 299645496 224026881#0 224026881#2 52493494#0 169130585"/>
    </vehicle>
    <vehicle id="trip1-routeB.2" type="car-green-rain" depart="1200.00">
        <route edges="23182962 189063912#0 207971475#0 207971475#1 284241336#0 284241336#5 52493742 52493741#0 704293239#0 299506410#0 207979572#0 23182767#0 23182990#0 221139568 23182816 -170993800#2 -917873078 -259803253 -972690969 -909651170#1 -909651169 -820421378#1 -909651173#2 -909651172 -972690317 284174992#0 169130585"/>
    </vehicle>
    <vehicle id="trip1-routeA.3" type="car-red-rain" depart="1800.00">
        <route edges="23182962 189063912#0 207971475#0 636473899#0 636473899#6 636473899#9 636473899#10 636473899#12 52493436#8 52493436#12 260124786#0 260124786#2 168914459#0 751068056 168914458#0 299510529#0 299644700#0 299644700#2 299644700#5 299644700#7 299644700#8 23182848#0 23182848#2 1102900327#0 1209362820 -1210315343 391433166#0 391433166#3 -573760699#3 -573760699#0 -23184151#1 299645496 224026881#0 224026881#2 52493494#0 169130585"/>
    </vehicle>
    <vehicle id="trip1-routeB.3" type="car-green-rain" depart="1800.00">
        <route edges="23182962 189063912#0 207971475#0 207971475#1 284241336#0 284241336#5 52493742 52493741#0 704293239#0 299506410#0 207979572#0 23182767#0 23182990#0 221139568 23182816 -170993800#2 -917873078 -259803253 -972690969 -909651170#1 -909651169 -820421378#1 -909651173#2 -909651172 -972690317 284174992#0 169130585"/>
    </vehicle>
    <vehicle id="trip1-routeA.4" type="car-red-rain" depart="2400.00">
        <route edges="23182962 189063912#0 207971475#0 636473899#0 636473899#6 636473899#9 636473899#10 636473899#12 52493436#8 52493436#12 260124786#0 260124786#2 168914459#0 751068056 168914458#0 299510529#0 299644700#0 299644700#2 299644700#5 299644700#7 299644700#8 23182848#0 23182848#2 1102900327#0 1209362820 -1210315343 391433166#0 391433166#3 -573760699#3 -573760699#0 -23184151#1 299645496 224026881#0 224026881#2 52493494#0 169130585"/>
    </vehicle>
    <vehicle id="trip1-routeB.4" type="car-green-rain" depart="2400.00">
        <route edges="23182962 189063912#0 207971475#0 207971475#1 284241336#0 284241336#5 52493742 52493741#0 704293239#0 299506410#0 207979572#0 23182767#0 23182990#0 221139568 23182816 -170993800#2 -917873078 -259803253 -972690969 -909651170#1 -909651169 -820421378#1 -909651173#2 -909651172 -972690317 284174992#0 169130585"/>
    </vehicle>
    <vehicle id="trip1-routeA.5" type="car-red-rain" depart="3000.00">
        <route edges="23182962 189063912#0 207971475#0 636473899#0 636473899#6 636473899#9 636473899#10 636473899#12 52493436#8 52493436#12 260124786#0 260124786#2 168914459#0 751068056 168914458#0 299510529#0 299644700#0 299644700#2 299644700#5 299644700#7 299644700#8 23182848#0 23182848#2 1102900327#0 1209362820 -1210315343 391433166#0 391433166#3 -573760699#3 -573760699#0 -23184151#1 299645496 224026881#0 224026881#2 52493494#0 169130585"/>
    </vehicle>
    <vehicle id="trip1-routeB.5" type="car-green-rain" depart="3000.00">
        <route edges="23182962 189063912#0 207971475#0 207971475#1 284241336#0 284241336#5 52493742 52493741#0 704293239#0 299506410#0 207979572#0 23182767#0 23182990#0 221139568 23182816 -170993800#2 -917873078 -259803253 -972690969 -909651170#1 -909651169 -820421378#1 -909651173#2 -909651172 -972690317 284174992#0 169130585"/>
    </vehicle>
    <vehicle id="trip1-routeA.6" type="car-red-rain" depart="3600.00">
        <route edges="23182962 189063912#0 207971475#0 636473899#0 636473899#6 636473899#9 636473899#10 636473899#12 52493436#8 52493436#12 260124786#0 260124786#2 168914459#0 751068056 168914458#0 299510529#0 299644700#0 299644700#2 299644700#5 299644700#7 299644700#8 23182848#0 23182848#2 1102900327#0 1209362820 -1210315343 391433166#0 391433166#3 -573760699#3 -573760699#0 -23184151#1 299645496 224026881#0 224026881#2 52493494#0 169130585"/>
    </vehicle>
    <vehicle id="trip1-routeB.6" type="car-green-rain" depart="3600.00">
        <route edges="23182962 189063912#0 207971475#0 207971475#1 284241336#0 284241336#5 52493742 52493741#0 704293239#0 299506410#0 207979572#0 23182767#0 23182990#0 221139568 23182816 -170993800#2 -917873078 -259803253 -972690969 -909651170#1 -909651169 -820421378#1 -909651173#2 -909651172 -972690317 284174992#0 169130585"/>
    </vehicle>
    <vehicle id="trip1-routeA.7" type="car-red-rain" depart="4200.00">
        <route edges="23182962 189063912#0 207971475#0 636473899#0 636473899#6 636473899#9 636473899#10 636473899#12 52493436#8 52493436#12 260124786#0 260124786#2 168914459#0 751068056 168914458#0 299510529#0 299644700#0 299644700#2 299644700#5 299644700#7 299644700#8 23182848#0 23182848#2 1102900327#0 1209362820 -1210315343 391433166#0 391433166#3 -573760699#3 -573760699#0 -23184151#1 299645496 224026881#0 224026881#2 52493494#0 169130585"/>
    </vehicle>
    <vehicle id="trip1-routeB.7" type="car-green-rain" depart="4200.00">
        <route edges="23182962 189063912#0 207971475#0 207971475#1 284241336#0 284241336#5 52493742 52493741#0 704293239#0 299506410#0 207979572#0 23182767#0 23182990#0 221139568 23182816 -170993800#2 -917873078 -259803253 -972690969 -909651170#1 -909651169 -820421378#1 -909651173#2 -909651172 -972690317 284174992#0 169130585"/>
    </vehicle>
    <vehicle id="trip1-routeA.8" type="car-red-rain" depart="4800.00">
        <route edges="23182962 189063912#0 207971475#0 636473899#0 636473899#6 636473899#9 636473899#10 636473899#12 52493436#8 52493436#12 260124786#0 260124786#2 168914459#0 751068056 168914458#0 299510529#0 299644700#0 299644700#2 299644700#5 299644700#7 299644700#8 23182848#0 23182848#2 1102900327#0 1209362820 -1210315343 391433166#0 391433166#3 -573760699#3 -573760699#0 -23184151#1 299645496 224026881#0 224026881#2 52493494#0 169130585"/>
    </vehicle>
    <vehicle id="trip1-routeB.8" type="car-green-rain" depart="4800.00">
        <route edges="23182962 189063912#0 207971475#0 207971475#1 284241336#0 284241336#5 52493742 52493741#0 704293239#0 299506410#0 207979572#0 23182767#0 23182990#0 221139568 23182816 -170993800#2 -917873078 -259803253 -972690969 -909651170#1 -909651169 -820421378#1 -909651173#2 -909651172 -972690317 284174992#0 169130585"/>
    </vehicle>
    <vehicle id="trip1-routeA.9" type="car-red-rain" depart="5400.00">
        <route edges="23182962 189063912#0 207971475#0 636473899#0 636473899#6 636473899#9 636473899#10 636473899#12 52493436#8 52493436#12 260124786#0 260124786#2 168914459#0 751068056 168914458#0 299510529#0 299644700#0 299644700#2 299644700#5 299644700#7 299644700#8 23182848#0 23182848#2 1102900327#0 1209362820 -1210315343 391433166#0 391433166#3 -573760699#3 -573760699#0 -23184151#1 299645496 224026881#0 224026881#2 52493494#0 169130585"/>
    </vehicle>
    <vehicle id="trip1-routeB.9" type="car-green-rain" depart="5400.00">
        <route edges="23182962 189063912#0 207971475#0 207971475#1 284241336#0 284241336#5 52493742 52493741#0 704293239#0 299506410#0 207979572#0 23182767#0 23182990#0 221139568 23182816 -170993800#2 -917873078 -259803253 -972690969 -909651170#1 -909651169 -820421378#1 -909651173#2 -909651172 -972690317 284174992#0 169130585"/>
    </vehicle>
    <vehicle id="trip1-routeA.10" type="car-red-rain" depart="6000.00">
        <route edges="23182962 189063912#0 207971475#0 636473899#0 636473899#6 636473899#9 636473899#10 636473899#12 52493436#8 52493436#12 260124786#0 260124786#2 168914459#0 751068056 168914458#0 299510529#0 299644700#0 299644700#2 299644700#5 299644700#7 299644700#8 23182848#0 23182848#2 1102900327#0 1209362820 -1210315343 391433166#0 391433166#3 -573760699#3 -573760699#0 -23184151#1 299645496 224026881#0 224026881#2 52493494#0 169130585"/>
    </vehicle>
    <vehicle id="trip1-routeB.10" type="car-green-rain" depart="6000.00">
        <route edges="23182962 189063912#0 207971475#0 207971475#1 284241336#0 284241336#5 52493742 52493741#0 704293239#0 299506410#0 207979572#0 23182767#0 23182990#0 221139568 23182816 -170993800#2 -917873078 -259803253 -972690969 -909651170#1 -909651169 -820421378#1 -909651173#2 -909651172 -972690317 284174992#0 169130585"/>
    </vehicle>
    <vehicle id="trip1-routeA.11" type="car-red-rain" depart="6600.00">
        <route edges="23182962 189063912#0 207971475#0 636473899#0 636473899#6 636473899#9 636473899#10 636473899#12 52493436#8 52493436#12 260124786#0 260124786#2 168914459#0 751068056 168914458#0 299510529#0 299644700#0 299644700#2 299644700#5 299644700#7 299644700#8 23182848#0 23182848#2 1102900327#0 1209362820 -1210315343 391433166#0 391433166#3 -573760699#3 -573760699#0 -23184151#1 299645496 224026881#0 224026881#2 52493494#0 169130585"/>
    </vehicle>
    <vehicle id="trip1-routeB.11" type="car-green-rain" depart="6600.00">
        <route edges="23182962 189063912#0 207971475#0 207971475#1 284241336#0 284241336#5 52493742 52493741#0 704293239#0 299506410#0 207979572#0 23182767#0 23182990#0 221139568 23182816 -170993800#2 -917873078 -259803253 -972690969 -909651170#1 -909651169 -820421378#1 -909651173#2 -909651172 -972690317 284174992#0 169130585"/>
    </vehicle>
    <vehicle id="trip1-routeA.12" type="car-red-rain" depart="7200.00">
        <route edges="23182962 189063912#0 207971475#0 636473899#0 636473899#6 636473899#9 636473899#10 636473899#12 52493436#8 52493436#12 260124786#0 260124786#2 168914459#0 751068056 168914458#0 299510529#0 299644700#0 299644700#2 299644700#5 299644700#7 299644700#8 23182848#0 23182848#2 1102900327#0 1209362820 -1210315343 391433166#0 391433166#3 -573760699#3 -573760699#0 -23184151#1 299645496 224026881#0 224026881#2 52493494#0 169130585"/>
    </vehicle>
    <vehicle id="trip1-routeB.12" type="car-green-rain" depart="7200.00">
        <route edges="23182962 189063912#0 207971475#0 207971475#1 284241336#0 284241336#5 52493742 52493741#0 704293239#0 299506410#0 207979572#0 23182767#0 23182990#0 221139568 23182816 -170993800#2 -917873078 -259803253 -972690969 -909651170#1 -909651169 -820421378#1 -909651173#2 -909651172 -972690317 284174992#0 169130585"/>
    </vehicle>
    <vehicle id="trip1-routeA.13" type="car-red-rain" depart="7800.00">
        <route edges="23182962 189063912#0 207971475#0 636473899#0 636473899#6 636473899#9 636473899#10 636473899#12 52493436#8 52493436#12 260124786#0 260124786#2 168914459#0 751068056 168914458#0 299510529#0 299644700#0 299644700#2 299644700#5 299644700#7 299644700#8 23182848#0 23182848#2 1102900327#0 1209362820 -1210315343 391433166#0 391433166#3 -573760699#3 -573760699#0 -23184151#1 299645496 224026881#0 224026881#2 52493494#0 169130585"/>
    </vehicle>
    <vehicle id="trip1-routeB.13" type="car-green-rain" depart="7800.00">
        <route edges="23182962 189063912#0 207971475#0 207971475#1 284241336#0 284241336#5 52493742 52493741#0 704293239#0 299506410#0 207979572#0 23182767#0 23182990#0 221139568 23182816 -170993800#2 -917873078 -259803253 -972690969 -909651170#1 -909651169 -820421378#1 -909651173#2 -909651172 -972690317 284174992#0 169130585"/>
    </vehicle>
    <vehicle id="trip1-routeA.14" type="car-red-rain" depart="8400.00">
        <route edges="23182962 189063912#0 207971475#0 636473899#0 636473899#6 636473899#9 636473899#10 636473899#12 52493436#8 52493436#12 260124786#0 260124786#2 168914459#0 751068056 168914458#0 299510529#0 299644700#0 299644700#2 299644700#5 299644700#7 299644700#8 23182848#0 23182848#2 1102900327#0 1209362820 -1210315343 391433166#0 391433166#3 -573760699#3 -573760699#0 -23184151#1 299645496 224026881#0 224026881#2 52493494#0 169130585"/>
    </vehicle>
    <vehicle id="trip1-routeB.14" type="car-green-rain" depart="8400.00">
        <route edges="23182962 189063912#0 207971475#0 207971475#1 284241336#0 284241336#5 52493742 52493741#0 704293239#0 299506410#0 207979572#0 23182767#0 23182990#0 221139568 23182816 -170993800#2 -917873078 -259803253 -972690969 -909651170#1 -909651169 -820421378#1 -909651173#2 -909651172 -972690317 284174992#0 169130585"/>
    </vehicle>
    <vehicle id="trip1-routeA.15" type="car-red-rain" depart="9000.00">
        <route edges="23182962 189063912#0 207971475#0 636473899#0 636473899#6 636473899#9 636473899#10 636473899#12 52493436#8 52493436#12 260124786#0 260124786#2 168914459#0 751068056 168914458#0 299510529#0 299644700#0 299644700#2 299644700#5 299644700#7 299644700#8 23182848#0 23182848#2 1102900327#0 1209362820 -1210315343 391433166#0 391433166#3 -573760699#3 -573760699#0 -23184151#1 299645496 224026881#0 224026881#2 52493494#0 169130585"/>
    </vehicle>
    <vehicle id="trip1-routeB.15" type="car-green-rain" depart="9000.00">
        <route edges="23182962 189063912#0 207971475#0 207971475#1 284241336#0 284241336#5 52493742 52493741#0 704293239#0 299506410#0 207979572#0 23182767#0 23182990#0 221139568 23182816 -170993800#2 -917873078 -259803253 -972690969 -909651170#1 -909651169 -820421378#1 -909651173#2 -909651172 -972690317 284174992#0 169130585"/>
    </vehicle>
    <vehicle id="trip1-routeA.16" type="car-red-rain" depart="9600.00">
        <route edges="23182962 189063912#0 207971475#0 636473899#0 636473899#6 636473899#9 636473899#10 636473899#12 52493436#8 52493436#12 260124786#0 260124786#2 168914459#0 751068056 168914458#0 299510529#0 299644700#0 299644700#2 299644700#5 299644700#7 299644700#8 23182848#0 23182848#2 1102900327#0 1209362820 -1210315343 391433166#0 391433166#3 -573760699#3 -573760699#0 -23184151#1 299645496 224026881#0 224026881#2 52493494#0 169130585"/>
    </vehicle>
    <vehicle id="trip1-routeB.16" type="car-green-rain" depart="9600.00">
        <route edges="23182962 189063912#0 207971475#0 207971475#1 284241336#0 284241336#5 52493742 52493741#0 704293239#0 299506410#0 207979572#0 23182767#0 23182990#0 221139568 23182816 -170993800#2 -917873078 -259803253 -972690969 -909651170#1 -909651169 -820421378#1 -909651173#2 -909651172 -972690317 284174992#0 169130585"/>
    </vehicle>
    <vehicle id="trip1-routeA.17" type="car-red-rain" depart="10200.00">
        <route edges="23182962 189063912#0 207971475#0 636473899#0 636473899#6 636473899#9 636473899#10 636473899#12 52493436#8 52493436#12 260124786#0 260124786#2 168914459#0 751068056 168914458#0 299510529#0 299644700#0 299644700#2 299644700#5 299644700#7 299644700#8 23182848#0 23182848#2 1102900327#0 1209362820 -1210315343 391433166#0 391433166#3 -573760699#3 -573760699#0 -23184151#1 299645496 224026881#0 224026881#2 52493494#0 169130585"/>
    </vehicle>
    <vehicle id="trip1-routeB.17" type="car-green-rain" depart="10200.00">
        <route edges="23182962 189063912#0 207971475#0 207971475#1 284241336#0 284241336#5 52493742 52493741#0 704293239#0 299506410#0 207979572#0 23182767#0 23182990#0 221139568 23182816 -170993800#2 -917873078 -259803253 -972690969 -909651170#1 -909651169 -820421378#1 -909651173#2 -909651172 -972690317 284174992#0 169130585"/>
    </vehicle>
    <vehicle id="trip1-routeA.18" type="car-red-rain" depart="10800.00">
        <route edges="23182962 189063912#0 207971475#0 636473899#0 636473899#6 636473899#9 636473899#10 636473899#12 52493436#8 52493436#12 260124786#0 260124786#2 168914459#0 751068056 168914458#0 299510529#0 299644700#0 299644700#2 299644700#5 299644700#7 299644700#8 23182848#0 23182848#2 1102900327#0 1209362820 -1210315343 391433166#0 391433166#3 -573760699#3 -573760699#0 -23184151#1 299645496 224026881#0 224026881#2 52493494#0 169130585"/>
    </vehicle>
    <vehicle id="trip1-routeB.18" type="car-green-rain" depart="10800.00">
        <route edges="23182962 189063912#0 207971475#0 207971475#1 284241336#0 284241336#5 52493742 52493741#0 704293239#0 299506410#0 207979572#0 23182767#0 23182990#0 221139568 23182816 -170993800#2 -917873078 -259803253 -972690969 -909651170#1 -909651169 -820421378#1 -909651173#2 -909651172 -972690317 284174992#0 169130585"/>
    </vehicle>
    <vehicle id="trip1-routeA.19" type="car-red-rain" depart="11400.00">
        <route edges="23182962 189063912#0 207971475#0 636473899#0 636473899#6 636473899#9 636473899#10 636473899#12 52493436#8 52493436#12 260124786#0 260124786#2 168914459#0 751068056 168914458#0 299510529#0 299644700#0 299644700#2 299644700#5 299644700#7 299644700#8 23182848#0 23182848#2 1102900327#0 1209362820 -1210315343 391433166#0 391433166#3 -573760699#3 -573760699#0 -23184151#1 299645496 224026881#0 224026881#2 52493494#0 169130585"/>
    </vehicle>
    <vehicle id="trip1-routeB.19" type="car-green-rain" depart="11400.00">
        <route edges="23182962 189063912#0 207971475#0 207971475#1 284241336#0 284241336#5 52493742 52493741#0 704293239#0 299506410#0 207979572#0 23182767#0 23182990#0 221139568 23182816 -170993800#2 -917873078 -259803253 -972690969 -909651170#1 -909651169 -820421378#1 -909651173#2 -909651172 -972690317 284174992#0 169130585"/>
    </vehicle>
    <vehicle id="trip1-routeA.20" type="car-red-rain" depart="12000.00">
        <route edges="23182962 189063912#0 207971475#0 636473899#0 636473899#6 636473899#9 636473899#10 636473899#12 52493436#8 52493436#12 260124786#0 260124786#2 168914459#0 751068056 168914458#0 299510529#0 299644700#0 299644700#2 299644700#5 299644700#7 299644700#8 23182848#0 23182848#2 1102900327#0 1209362820 -1210315343 391433166#0 391433166#3 -573760699#3 -573760699#0 -23184151#1 299645496 224026881#0 224026881#2 52493494#0 169130585"/>
    </vehicle>
    <vehicle id="trip1-routeB.20" type="car-green-rain" depart="12000.00">
        <route edges="23182962 189063912#0 207971475#0 207971475#1 284241336#0 284241336#5 52493742 52493741#0 704293239#0 299506410#0 207979572#0 23182767#0 23182990#0 221139568 23182816 -170993800#2 -917873078 -259803253 -972690969 -909651170#1 -909651169 -820421378#1 -909651173#2 -909651172 -972690317 284174992#0 169130585"/>
    </vehicle>
    <vehicle id="trip1-routeA.21" type="car-red-rain" depart="12600.00">
        <route edges="23182962 189063912#0 207971475#0 636473899#0 636473899#6 636473899#9 636473899#10 636473899#12 52493436#8 52493436#12 260124786#0 260124786#2 168914459#0 751068056 168914458#0 299510529#0 299644700#0 299644700#2 299644700#5 299644700#7 299644700#8 23182848#0 23182848#2 1102900327#0 1209362820 -1210315343 391433166#0 391433166#3 -573760699#3 -573760699#0 -23184151#1 299645496 224026881#0 224026881#2 52493494#0 169130585"/>
    </vehicle>
    <vehicle id="trip1-routeB.21" type="car-green-rain" depart="12600.00">
        <route edges="23182962 189063912#0 207971475#0 207971475#1 284241336#0 284241336#5 52493742 52493741#0 704293239#0 299506410#0 207979572#0 23182767#0 23182990#0 221139568 23182816 -170993800#2 -917873078 -259803253 -972690969 -909651170#1 -909651169 -820421378#1 -909651173#2 -909651172 -972690317 284174992#0 169130585"/>
    </vehicle>
    <vehicle id="trip1-routeA.22" type="car-red-rain" depart="13200.00">
        <route edges="23182962 189063912#0 207971475#0 636473899#0 636473899#6 636473899#9 636473899#10 636473899#12 52493436#8 52493436#12 260124786#0 260124786#2 168914459#0 751068056 168914458#0 299510529#0 299644700#0 299644700#2 299644700#5 299644700#7 299644700#8 23182848#0 23182848#2 1102900327#0 1209362820 -1210315343 391433166#0 391433166#3 -573760699#3 -573760699#0 -23184151#1 299645496 224026881#0 224026881#2 52493494#0 169130585"/>
    </vehicle>
    <vehicle id="trip1-routeB.22" type="car-green-rain" depart="13200.00">
        <route edges="23182962 189063912#0 207971475#0 207971475#1 284241336#0 284241336#5 52493742 52493741#0 704293239#0 299506410#0 207979572#0 23182767#0 23182990#0 221139568 23182816 -170993800#2 -917873078 -259803253 -972690969 -909651170#1 -909651169 -820421378#1 -909651173#2 -909651172 -972690317 284174992#0 169130585"/>
    </vehicle>
    <vehicle id="trip1-routeA.23" type="car-red-rain" depart="13800.00">
        <route edges="23182962 189063912#0 207971475#0 636473899#0 636473899#6 636473899#9 636473899#10 636473899#12 52493436#8 52493436#12 260124786#0 260124786#2 168914459#0 751068056 168914458#0 299510529#0 299644700#0 299644700#2 299644700#5 299644700#7 299644700#8 23182848#0 23182848#2 1102900327#0 1209362820 -1210315343 391433166#0 391433166#3 -573760699#3 -573760699#0 -23184151#1 299645496 224026881#0 224026881#2 52493494#0 169130585"/>
    </vehicle>
    <vehicle id="trip1-routeB.23" type="car-green-rain" depart="13800.00">
        <route edges="23182962 189063912#0 207971475#0 207971475#1 284241336#0 284241336#5 52493742 52493741#0 704293239#0 299506410#0 207979572#0 23182767#0 23182990#0 221139568 23182816 -170993800#2 -917873078 -259803253 -972690969 -909651170#1 -909651169 -820421378#1 -909651173#2 -909651172 -972690317 284174992#0 169130585"/>
    </vehicle>
    <vehicle id="trip1-routeA.24" type="car-red-rain" depart="14400.00">
        <route edges="23182962 189063912#0 207971475#0 636473899#0 636473899#6 636473899#9 636473899#10 636473899#12 52493436#8 52493436#12 260124786#0 260124786#2 168914459#0 751068056 168914458#0 299510529#0 299644700#0 299644700#2 299644700#5 299644700#7 299644700#8 23182848#0 23182848#2 1102900327#0 1209362820 -1210315343 391433166#0 391433166#3 -573760699#3 -573760699#0 -23184151#1 299645496 224026881#0 224026881#2 52493494#0 169130585"/>
    </vehicle>
    <vehicle id="trip1-routeB.24" type="car-green-rain" depart="14400.00">
        <route edges="23182962 189063912#0 207971475#0 207971475#1 284241336#0 284241336#5 52493742 52493741#0 704293239#0 299506410#0 207979572#0 23182767#0 23182990#0 221139568 23182816 -170993800#2 -917873078 -259803253 -972690969 -909651170#1 -909651169 -820421378#1 -909651173#2 -909651172 -972690317 284174992#0 169130585"/>
    </vehicle>
    <vehicle id="trip1-routeA.25" type="car-red-rain" depart="15000.00">
        <route edges="23182962 189063912#0 207971475#0 636473899#0 636473899#6 636473899#9 636473899#10 636473899#12 52493436#8 52493436#12 260124786#0 260124786#2 168914459#0 751068056 168914458#0 299510529#0 299644700#0 299644700#2 299644700#5 299644700#7 299644700#8 23182848#0 23182848#2 1102900327#0 1209362820 -1210315343 391433166#0 391433166#3 -573760699#3 -573760699#0 -23184151#1 299645496 224026881#0 224026881#2 52493494#0 169130585"/>
    </vehicle>
    <vehicle id="trip1-routeB.25" type="car-green-rain" depart="15000.00">
        <route edges="23182962 189063912#0 207971475#0 207971475#1 284241336#0 284241336#5 52493742 52493741#0 704293239#0 299506410#0 207979572#0 23182767#0 23182990#0 221139568 23182816 -170993800#2 -917873078 -259803253 -972690969 -909651170#1 -909651169 -820421378#1 -909651173#2 -909651172 -972690317 284174992#0 169130585"/>
    </vehicle>
    <vehicle id="trip1-routeA.26" type="car-red-rain" depart="15600.00">
        <route edges="23182962 189063912#0 207971475#0 636473899#0 636473899#6 636473899#9 636473899#10 636473899#12 52493436#8 52493436#12 260124786#0 260124786#2 168914459#0 751068056 168914458#0 299510529#0 299644700#0 299644700#2 299644700#5 299644700#7 299644700#8 23182848#0 23182848#2 1102900327#0 1209362820 -1210315343 391433166#0 391433166#3 -573760699#3 -573760699#0 -23184151#1 299645496 224026881#0 224026881#2 52493494#0 169130585"/>
    </vehicle>
    <vehicle id="trip1-routeB.26" type="car-green-rain" depart="15600.00">
        <route edges="23182962 189063912#0 207971475#0 207971475#1 284241336#0 284241336#5 52493742 52493741#0 704293239#0 299506410#0 207979572#0 23182767#0 23182990#0 221139568 23182816 -170993800#2 -917873078 -259803253 -972690969 -909651170#1 -909651169 -820421378#1 -909651173#2 -909651172 -972690317 284174992#0 169130585"/>
    </vehicle>
    <vehicle id="trip1-routeA.27" type="car-red-rain" depart="16200.00">
        <route edges="23182962 189063912#0 207971475#0 636473899#0 636473899#6 636473899#9 636473899#10 636473899#12 52493436#8 52493436#12 260124786#0 260124786#2 168914459#0 751068056 168914458#0 299510529#0 299644700#0 299644700#2 299644700#5 299644700#7 299644700#8 23182848#0 23182848#2 1102900327#0 1209362820 -1210315343 391433166#0 391433166#3 -573760699#3 -573760699#0 -23184151#1 299645496 224026881#0 224026881#2 52493494#0 169130585"/>
    </vehicle>
    <vehicle id="trip1-routeB.27" type="car-green-rain" depart="16200.00">
        <route edges="23182962 189063912#0 207971475#0 207971475#1 284241336#0 284241336#5 52493742 52493741#0 704293239#0 299506410#0 207979572#0 23182767#0 23182990#0 221139568 23182816 -170993800#2 -917873078 -259803253 -972690969 -909651170#1 -909651169 -820421378#1 -909651173#2 -909651172 -972690317 284174992#0 169130585"/>
    </vehicle>
    <vehicle id="trip1-routeA.28" type="car-red-rain" depart="16800.00">
        <route edges="23182962 189063912#0 207971475#0 636473899#0 636473899#6 636473899#9 636473899#10 636473899#12 52493436#8 52493436#12 260124786#0 260124786#2 168914459#0 751068056 168914458#0 299510529#0 299644700#0 299644700#2 299644700#5 299644700#7 299644700#8 23182848#0 23182848#2 1102900327#0 1209362820 -1210315343 391433166#0 391433166#3 -573760699#3 -573760699#0 -23184151#1 299645496 224026881#0 224026881#2 52493494#0 169130585"/>
    </vehicle>
    <vehicle id="trip1-routeB.28" type="car-green-rain" depart="16800.00">
        <route edges="23182962 189063912#0 207971475#0 207971475#1 284241336#0 284241336#5 52493742 52493741#0 704293239#0 299506410#0 207979572#0 23182767#0 23182990#0 221139568 23182816 -170993800#2 -917873078 -259803253 -972690969 -909651170#1 -909651169 -820421378#1 -909651173#2 -909651172 -972690317 284174992#0 169130585"/>
    </vehicle>
    <vehicle id="trip1-routeA.29" type="car-red-rain" depart="17400.00">
        <route edges="23182962 189063912#0 207971475#0 636473899#0 636473899#6 636473899#9 636473899#10 636473899#12 52493436#8 52493436#12 260124786#0 260124786#2 168914459#0 751068056 168914458#0 299510529#0 299644700#0 299644700#2 299644700#5 299644700#7 299644700#8 23182848#0 23182848#2 1102900327#0 1209362820 -1210315343 391433166#0 391433166#3 -573760699#3 -573760699#0 -23184151#1 299645496 224026881#0 224026881#2 52493494#0 169130585"/>
    </vehicle>
    <vehicle id="trip1-routeB.29" type="car-green-rain" depart="17400.00">
        <route edges="23182962 189063912#0 207971475#0 207971475#1 284241336#0 284241336#5 52493742 52493741#0 704293239#0 299506410#0 207979572#0 23182767#0 23182990#0 221139568 23182816 -170993800#2 -917873078 -259803253 -972690969 -909651170#1 -909651169 -820421378#1 -909651173#2 -909651172 -972690317 284174992#0 169130585"/>
    </vehicle>
    <vehicle id="trip1-routeA.30" type="car-red-rain" depart="18000.00">