<routes>
    <vType id="car-red-rain" vClass="passenger" accel="2.0" decel="4.0" length="5.00"
           minGap="3.50" maxSpeed="33.33" emissionClass="HBEFA3/PC_G_EU4" color="red" speedFactor="0.8"/>
    <vType id="car-green-rain" vClass="passenger" accel="2.0" decel="4.0" length="5.00"
           minGap="3.50" maxSpeed="33.33" emissionClass="HBEFA3/PC_G_EU4" color="green" speedFactor="0.8"/>

    <flow id="trip1-routeA" type="car-red-rain" begin="0" period="600" number="60"
          from="23182962" to="169130585" via="260124786#0 1209362820 299645496" />
    <flow id="trip1-routeB" type="car-green-rain" begin="0" period="600" number="60"
          from="23182962" to="169130585" via="299506410#0 221139568 -820421378#1" />
</routes>
