<routes xmlns:xsi="http://www.w3.org/2001/XMLSchema-instance" xsi:noNamespaceSchemaLocation="http://sumo.dlr.de/xsd/routes_file.xsd">
    <vehicle id="trip1-routeA.0" depart="0.00" type="car-rain">
        <route edges="23182962 189063912#0 207971475#0 636473899#0 636473899#6 636473899#9 636473899#10 636473899#12 52493436#8 52493436#12 260124786#0 260124786#2 168914459#0 751068056 168914458#0 299510529#0 299644700#0 299644700#2 299644700#5 299644700#7 299644700#8 23182848#0 23182848#2 1102900327#0 1209362820 -1210315343 391433166#0 391433166#3 -573760699#3 -573760699#0 -23184151#1 299645496 224026881#0 224026881#2 52493494#0 169130585" />
    </vehicle>
    <vehicle id="trip1-routeB.0" depart="0.00" type="car-rain">
        <route edges="23182962 189063912#0 207971475#0 207971475#1 284241336#0 284241336#5 52493742 52493741#0 704293239#0 299506410#0 207979572#0 23182767#0 23182990#0 221139568 23182816 -170993800#2 -917873078 -259803253 -972690969 -909651170#1 -909651169 -820421378#1 -909651173#2 -909651172 -972690317 284174992#0 169130585" />
    </vehicle>
    <vehicle id="trip1-routeA.1" depart="600.00" type="car-rain">
        <route edges="23182962 189063912#0 207971475#0 636473899#0 636473899#6 636473899#9 636473899#10 636473899#12 52493436#8 52493436#12 260124786#0 260124786#2 168914459#0 751068056 168914458#0 299510529#0 299644700#0 299644700#2 299644700#5 299644700#7 299644700#8 23182848#0 23182848#2 1102900327#0 1209362820 -1210315343 391433166#0 391433166#3 -573760699#3 -573760699#0 -23184151#1 299645496 224026881#0 224026881#2 52493494#0 169130585" />
    </vehicle>
    <vehicle id="trip1-routeB.1" depart="600.00" type="car-rain">
        <route edges="23182962 189063912#0 207971475#0 207971475#1 284241336#0 284241336#5 52493742 52493741#0 704293239#0 299506410#0 207979572#0 23182767#0 23182990#0 221139568 23182816 -170993800#2 -917873078 -259803253 -972690969 -909651170#1 -909651169 -820421378#1 -909651173#2 -909651172 -972690317 284174992#0 169130585" />
    </vehicle>
    <vehicle id="trip1-routeA.2" depart="1200.00" type="car-rain">
        <route edges="23182962 189063912#0 207971475#0 636473899#0 636473899#6 636473899#9 636473899#10 636473899#12 52493436#8 52493436#12 260124786#0 260124786#2 168914459#0 751068056 168914458#0 299510529#0 299644700#0 299644700#2 299644700#5 299644700#7 299644700#8 23182848#0 23182848#2 1102900327#0 1209362820 -1210315343 391433166#0 391433166#3 -573760699#3 -573760699#0 -23184151#1 299645496 224026881#0 224026881#2 52493494#0 169130585" />
    </vehicle>
    <vehicle id="trip1-routeB.2" depart="1200.00" type="car-rain">
        <route edges="23182962 189063912#0 207971475#0 207971475#1 284241336#0 284241336#5 52493742 52493741#0 704293239#0 299506410#0 207979572#0 23182767#0 23182990#0 221139568 23182816 -170993800#2 -917873078 -259803253 -972690969 -909651170#1 -909651169 -820421378#1 -909651173#2 -909651172 -972690317 284174992#0 169130585" />
    </vehicle>
    <vehicle id="trip1-routeA.3" depart="1800.00" type="car-rain">
        <route edges="23182962 189063912#0 207971475#0 636473899#0 636473899#6 636473899#9 636473899#10 636473899#12 52493436#8 52493436#12 260124786#0 260124786#2 168914459#0 751068056 168914458#0 299510529#0 299644700#0 299644700#2 299644700#5 299644700#7 299644700#8 23182848#0 23182848#2 1102900327#0 1209362820 -1210315343 391433166#0 391433166#3 -573760699#3 -573760699#0 -23184151#1 299645496 224026881#0 224026881#2 52493494#0 169130585" />
    </vehicle>
    <vehicle id="trip1-routeB.3" depart="1800.00" type="car-rain">
        <route edges="23182962 189063912#0 207971475#0 207971475#1 284241336#0 284241336#5 52493742 52493741#0 704293239#0 299506410#0 207979572#0 23182767#0 23182990#0 221139568 23182816 -170993800#2 -917873078 -259803253 -972690969 -909651170#1 -909651169 -820421378#1 -909651173#2 -909651172 -972690317 284174992#0 169130585" />
    </vehicle>
    <vehicle id="trip1-routeA.4" depart="2400.00" type="car-rain">
        <route edges="23182962 189063912#0 207971475#0 636473899#0 636473899#6 636473899#9 636473899#10 636473899#12 52493436#8 52493436#12 260124786#0 260124786#2 168914459#0 751068056 168914458#0 299510529#0 299644700#0 299644700#2 299644700#5 299644700#7 299644700#8 23182848#0 23182848#2 1102900327#0 1209362820 -1210315343 391433166#0 391433166#3 -573760699#3 -573760699#0 -23184151#1 299645496 224026881#0 224026881#2 52493494#0 169130585" />
    </vehicle>
    <vehicle id="trip1-routeB.4" depart="2400.00" type="car-rain">
        <route edges="23182962 189063912#0 207971475#0 207971475#1 284241336#0 284241336#5 52493742 52493741#0 704293239#0 299506410#0 207979572#0 23182767#0 23182990#0 221139568 23182816 -170993800#2 -917873078 -259803253 -972690969 -909651170#1 -909651169 -820421378#1 -909651173#2 -909651172 -972690317 284174992#0 169130585" />
    </vehicle>
    <vehicle id="trip1-routeA.5" depart="3000.00" type="car-rain">
        <route edges="23182962 189063912#0 207971475#0 636473899#0 636473899#6 636473899#9 636473899#10 636473899#12 52493436#8 52493436#12 260124786#0 260124786#2 168914459#0 751068056 168914458#0 299510529#0 299644700#0 299644700#2 299644700#5 299644700#7 299644700#8 23182848#0 23182848#2 1102900327#0 1209362820 -1210315343 391433166#0 391433166#3 -573760699#3 -573760699#0 -23184151#1 299645496 224026881#0 224026881#2 52493494#0 169130585" />
    </vehicle>
    <vehicle id="trip1-routeB.5" depart="3000.00" type="car-rain">
        <route edges="23182962 189063912#0 207971475#0 207971475#1 284241336#0 284241336#5 52493742 52493741#0 704293239#0 299506410#0 207979572#0 23182767#0 23182990#0 221139568 23182816 -170993800#2 -917873078 -259803253 -972690969 -909651170#1 -909651169 -820421378#1 -909651173#2 -909651172 -972690317 284174992#0 169130585" />
    </vehicle>
    <vehicle id="trip1-routeA.6" depart="3600.00" type="car-rain">
        <route edges="23182962 189063912#0 207971475#0 636473899#0 636473899#6 636473899#9 636473899#10 636473899#12 52493436#8 52493436#12 260124786#0 260124786#2 168914459#0 751068056 168914458#0 299510529#0 299644700#0 299644700#2 299644700#5 299644700#7 299644700#8 23182848#0 23182848#2 1102900327#0 1209362820 -1210315343 391433166#0 391433166#3 -573760699#3 -573760699#0 -23184151#1 299645496 224026881#0 224026881#2 52493494#0 169130585" />
    </vehicle>
    <vehicle id="trip1-routeB.6" depart="3600.00" type="car-rain">
        <route edges="23182962 189063912#0 207971475#0 207971475#1 284241336#0 284241336#5 52493742 52493741#0 704293239#0 299506410#0 207979572#0 23182767#0 23182990#0 221139568 23182816 -170993800#2 -917873078 -259803253 -972690969 -909651170#1 -909651169 -820421378#1 -909651173#2 -909651172 -972690317 284174992#0 169130585" />
    </vehicle>
    <vehicle id="trip1-routeA.7" depart="4200.00" type="car-rain">
        <route edges="23182962 189063912#0 207971475#0 636473899#0 636473899#6 636473899#9 636473899#10 636473899#12 52493436#8 52493436#12 260124786#0 260124786#2 168914459#0 751068056 168914458#0 299510529#0 299644700#0 299644700#2 299644700#5 299644700#7 299644700#8 23182848#0 23182848#2 1102900327#0 1209362820 -1210315343 391433166#0 391433166#3 -573760699#3 -573760699#0 -23184151#1 299645496 224026881#0 224026881#2 52493494#0 169130585" />
    </vehicle>
    <vehicle id="trip1-routeB.7" depart="4200.00" type="car-rain">
        <route edges="23182962 189063912#0 207971475#0 207971475#1 284241336#0 284241336#5 52493742 52493741#0 704293239#0 299506410#0 207979572#0 23182767#0 23182990#0 221139568 23182816 -170993800#2 -917873078 -259803253 -972690969 -909651170#1 -909651169 -820421378#1 -909651173#2 -909651172 -972690317 284174992#0 169130585" />
    </vehicle>
    <vehicle id="trip1-routeA.8" depart="4800.00" type="car-rain">
        <route edges="23182962 189063912#0 207971475#0 636473899#0 636473899#6 636473899#9 636473899#10 636473899#12 52493436#8 52493436#12 260124786#0 260124786#2 168914459#0 751068056 168914458#0 299510529#0 299644700#0 299644700#2 299644700#5 299644700#7 299644700#8 23182848#0 23182848#2 1102900327#0 1209362820 -1210315343 391433166#0 391433166#3 -573760699#3 -573760699#0 -23184151#1 299645496 224026881#0 224026881#2 52493494#0 169130585" />
    </vehicle>
    <vehicle id="trip1-routeB.8" depart="4800.00" type="car-rain">
        <route edges="23182962 189063912#0 207971475#0 207971475#1 284241336#0 284241336#5 52493742 52493741#0 704293239#0 299506410#0 207979572#0 23182767#0 23182990#0 221139568 23182816 -170993800#2 -917873078 -259803253 -972690969 -909651170#1 -909651169 -820421378#1 -909651173#2 -909651172 -972690317 284174992#0 169130585" />
    </vehicle>
    <vehicle id="trip1-routeA.9" depart="5400.00" type="car-rain">
        <route edges="23182962 189063912#0 207971475#0 636473899#0 636473899#6 636473899#9 636473899#10 636473899#12 52493436#8 52493436#12 260124786#0 260124786#2 168914459#0 751068056 168914458#0 299510529#0 299644700#0 299644700#2 299644700#5 299644700#7 299644700#8 23182848#0 23182848#2 1102900327#0 1209362820 -1210315343 391433166#0 391433166#3 -573760699#3 -573760699#0 -23184151#1 299645496 224026881#0 224026881#2 52493494#0 169130585" />
    </vehicle>
    <vehicle id="trip1-routeB.9" depart="5400.00" type="car-rain">
        <route edges="23182962 189063912#0 207971475#0 207971475#1 284241336#0 284241336#5 52493742 52493741#0 704293239#0 299506410#0 207979572#0 23182767#0 23182990#0 221139568 23182816 -170993800#2 -917873078 -259803253 -972690969 -909651170#1 -909651169 -820421378#1 -909651173#2 -909651172 -972690317 284174992#0 169130585" />
    </vehicle>
    <vehicle id="trip1-routeA.10" depart="6000.00" type="car-rain">
        <route edges="23182962 189063912#0 207971475#0 636473899#0 636473899#6 636473899#9 636473899#10 636473899#12 52493436#8 52493436#12 260124786#0 260124786#2 168914459#0 751068056 168914458#0 299510529#0 299644700#0 299644700#2 299644700#5 299644700#7 299644700#8 23182848#0 23182848#2 1102900327#0 1209362820 -1210315343 391433166#0 391433166#3 -573760699#3 -573760699#0 -23184151#1 299645496 224026881#0 224026881#2 52493494#0 169130585" />
    </vehicle>
    <vehicle id="trip1-routeB.10" depart="6000.00" type="car-rain">
        <route edges="23182962 189063912#0 207971475#0 207971475#1 284241336#0 284241336#5 52493742 52493741#0 704293239#0 299506410#0 207979572#0 23182767#0 23182990#0 221139568 23182816 -170993800#2 -917873078 -259803253 -972690969 -909651170#1 -909651169 -820421378#1 -909651173#2 -909651172 -972690317 284174992#0 169130585" />
    </vehicle>
    <vehicle id="trip1-routeA.11" depart="6600.00" type="car-rain">
        <route edges="23182962 189063912#0 207971475#0 636473899#0 636473899#6 636473899#9 636473899#10 636473899#12 52493436#8 52493436#12 260124786#0 260124786#2 168914459#0 751068056 168914458#0 299510529#0 299644700#0 299644700#2 299644700#5 299644700#7 299644700#8 23182848#0 23182848#2 1102900327#0 1209362820 -1210315343 391433166#0 391433166#3 -573760699#3 -573760699#0 -23184151#1 299645496 224026881#0 224026881#2 52493494#0 169130585" />
    </vehicle>
    <vehicle id="trip1-routeB.11" depart="6600.00" type="car-rain">
        <route edges="23182962 189063912#0 207971475#0 207971475#1 284241336#0 284241336#5 52493742 52493741#0 704293239#0 299506410#0 207979572#0 23182767#0 23182990#0 221139568 23182816 -170993800#2 -917873078 -259803253 -972690969 -909651170#1 -909651169 -820421378#1 -909651173#2 -909651172 -972690317 284174992#0 169130585" />
    </vehicle>
    <vehicle id="trip1-routeA.12" depart="7200.00" type="car-rain">
        <route edges="23182962 189063912#0 207971475#0 636473899#0 636473899#6 636473899#9 636473899#10 636473899#12 52493436#8 52493436#12 260124786#0 260124786#2 168914459#0 751068056 168914458#0 299510529#0 299644700#0 299644700#2 299644700#5 299644700#7 299644700#8 23182848#0 23182848#2 1102900327#0 1209362820 -1210315343 391433166#0 391433166#3 -573760699#3 -573760699#0 -23184151#1 299645496 224026881#0 224026881#2 52493494#0 169130585" />
    </vehicle>
    <vehicle id="trip1-routeB.12" depart="7200.00" type="car-rain">
        <route edges="23182962 189063912#0 207971475#0 207971475#1 284241336#0 284241336#5 52493742 52493741#0 704293239#0 299506410#0 207979572#0 23182767#0 23182990#0 221139568 23182816 -170993800#2 -917873078 -259803253 -972690969 -909651170#1 -909651169 -820421378#1 -909651173#2 -909651172 -972690317 284174992#0 169130585" />
    </vehicle>
    <vehicle id="trip1-routeA.13" depart="7800.00" type="car-rain">
        <route edges="23182962 189063912#0 207971475#0 636473899#0 636473899#6 636473899#9 636473899#10 636473899#12 52493436#8 52493436#12 260124786#0 260124786#2 168914459#0 751068056 168914458#0 299510529#0 299644700#0 299644700#2 299644700#5 299644700#7 299644700#8 23182848#0 23182848#2 1102900327#0 1209362820 -1210315343 391433166#0 391433166#3 -573760699#3 -573760699#0 -23184151#1 299645496 224026881#0 224026881#2 52493494#0 169130585" />
    </vehicle>
    <vehicle id="trip1-routeB.13" depart="7800.00" type="car-rain">
        <route edges="23182962 189063912#0 207971475#0 207971475#1 284241336#0 284241336#5 52493742 52493741#0 704293239#0 299506410#0 207979572#0 23182767#0 23182990#0 221139568 23182816 -170993800#2 -917873078 -259803253 -972690969 -909651170#1 -909651169 -820421378#1 -909651173#2 -909651172 -972690317 284174992#0 169130585" />
    </vehicle>
    <vehicle id="trip1-routeA.14" depart="8400.00" type="car-rain">
        <route edges="23182962 189063912#0 207971475#0 636473899#0 636473899#6 636473899#9 636473899#10 636473899#12 52493436#8 52493436#12 260124786#0 260124786#2 168914459#0 751068056 168914458#0 299510529#0 299644700#0 299644700#2 299644700#5 299644700#7 299644700#8 23182848#0 23182848#2 1102900327#0 1209362820 -1210315343 391433166#0 391433166#3 -573760699#3 -573760699#0 -23184151#1 299645496 224026881#0 224026881#2 52493494#0 169130585" />
    </vehicle>
    <vehicle id="trip1-routeB.14" depart="8400.00" type="car-rain">
        <route edges="23182962 189063912#0 207971475#0 207971475#1 284241336#0 284241336#5 52493742 52493741#0 704293239#0 299506410#0 207979572#0 23182767#0 23182990#0 221139568 23182816 -170993800#2 -917873078 -259803253 -972690969 -909651170#1 -909651169 -820421378#1 -909651173#2 -909651172 -972690317 284174992#0 169130585" />
    </vehicle>
    <vehicle id="trip1-routeA.15" depart="9000.00" type="car-rain">
        <route edges="23182962 189063912#0 207971475#0 636473899#0 636473899#6 636473899#9 636473899#10 636473899#12 52493436#8 52493436#12 260124786#0 260124786#2 168914459#0 751068056 168914458#0 299510529#0 299644700#0 299644700#2 299644700#5 299644700#7 299644700#8 23182848#0 23182848#2 1102900327#0 1209362820 -1210315343 391433166#0 391433166#3 -573760699#3 -573760699#0 -23184151#1 299645496 224026881#0 224026881#2 52493494#0 169130585" />
    </vehicle>
    <vehicle id="trip1-routeB.15" depart="9000.00" type="car-rain">
        <route edges="23182962 189063912#0 207971475#0 207971475#1 284241336#0 284241336#5 52493742 52493741#0 704293239#0 299506410#0 207979572#0 23182767#0 23182990#0 221139568 23182816 -170993800#2 -917873078 -259803253 -972690969 -909651170#1 -909651169 -820421378#1 -909651173#2 -909651172 -972690317 284174992#0 169130585" />
    </vehicle>
    <vehicle id="trip1-routeA.16" depart="9600.00" type="car-rain">
        <route edges="23182962 189063912#0 207971475#0 636473899#0 636473899#6 636473899#9 636473899#10 636473899#12 52493436#8 52493436#12 260124786#0 260124786#2 168914459#0 751068056 168914458#0 299510529#0 299644700#0 299644700#2 299644700#5 299644700#7 299644700#8 23182848#0 23182848#2 1102900327#0 1209362820 -1210315343 391433166#0 391433166#3 -573760699#3 -573760699#0 -23184151#1 299645496 224026881#0 224026881#2 52493494#0 169130585" />
    </vehicle>
    <vehicle id="trip1-routeB.16" depart="9600.00" type="car-rain">
        <route edges="23182962 189063912#0 207971475#0 207971475#1 284241336#0 284241336#5 52493742 52493741#0 704293239#0 299506410#0 207979572#0 23182767#0 23182990#0 221139568 23182816 -170993800#2 -917873078 -259803253 -972690969 -909651170#1 -909651169 -820421378#1 -909651173#2 -909651172 -972690317 284174992#0 169130585" />
    </vehicle>
    <vehicle id="trip1-routeA.17" depart="10200.00" type="car-rain">
        <route edges="23182962 189063912#0 207971475#0 636473899#0 636473899#6 636473899#9 636473899#10 636473899#12 52493436#8 52493436#12 260124786#0 260124786#2 168914459#0 751068056 168914458#0 299510529#0 299644700#0 299644700#2 299644700#5 299644700#7 299644700#8 23182848#0 23182848#2 1102900327#0 1209362820 -1210315343 391433166#0 391433166#3 -573760699#3 -573760699#0 -23184151#1 299645496 224026881#0 224026881#2 52493494#0 169130585" />
    </vehicle>
    <vehicle id="trip1-routeB.17" depart="10200.00" type="car-rain">
        <route edges="23182962 189063912#0 207971475#0 207971475#1 284241336#0 284241336#5 52493742 52493741#0 704293239#0 299506410#0 207979572#0 23182767#0 23182990#0 221139568 23182816 -170993800#2 -917873078 -259803253 -972690969 -909651170#1 -909651169 -820421378#1 -909651173#2 -909651172 -972690317 284174992#0 169130585" />
    </vehicle>
    <vehicle id="trip1-routeA.18" depart="10800.00" type="car-rain">
        <route edges="23182962 189063912#0 207971475#0 636473899#0 636473899#6 636473899#9 636473899#10 636473899#12 52493436#8 52493436#12 260124786#0 260124786#2 168914459#0 751068056 168914458#0 299510529#0 299644700#0 299644700#2 299644700#5 299644700#7 299644700#8 23182848#0 23182848#2 1102900327#0 1209362820 -1210315343 391433166#0 391433166#3 -573760699#3 -573760699#0 -23184151#1 299645496 224026881#0 224026881#2 52493494#0 169130585" />
    </vehicle>
    <vehicle id="trip1-routeB.18" depart="10800.00" type="car-rain">
        <route edges="23182962 189063912#0 207971475#0 207971475#1 284241336#0 284241336#5 52493742 52493741#0 704293239#0 299506410#0 207979572#0 23182767#0 23182990#0 221139568 23182816 -170993800#2 -917873078 -259803253 -972690969 -909651170#1 -909651169 -820421378#1 -909651173#2 -909651172 -972690317 284174992#0 169130585" />
    </vehicle>
    <vehicle id="trip1-routeA.19" depart="11400.00" type="car-rain">
        <route edges="23182962 189063912#0 207971475#0 636473899#0 636473899#6 636473899#9 636473899#10 636473899#12 52493436#8 52493436#12 260124786#0 260124786#2 168914459#0 751068056 168914458#0 299510529#0 299644700#0 299644700#2 299644700#5 299644700#7 299644700#8 23182848#0 23182848#2 1102900327#0 1209362820 -1210315343 391433166#0 391433166#3 -573760699#3 -573760699#0 -23184151#1 299645496 224026881#0 224026881#2 52493494#0 169130585" />
    </vehicle>
    <vehicle id="trip1-routeB.19" depart="11400.00" type="car-rain">
        <route edges="23182962 189063912#0 207971475#0 207971475#1 284241336#0 284241336#5 52493742 52493741#0 704293239#0 299506410#0 207979572#0 23182767#0 23182990#0 221139568 23182816 -170993800#2 -917873078 -259803253 -972690969 -909651170#1 -909651169 -820421378#1 -909651173#2 -909651172 -972690317 284174992#0 169130585" />
    </vehicle>
    <vehicle id="trip1-routeA.20" depart="12000.00" type="car-rain">
        <route edges="23182962 189063912#0 207971475#0 636473899#0 636473899#6 636473899#9 636473899#10 636473899#12 52493436#8 52493436#12 260124786#0 260124786#2 168914459#0 751068056 168914458#0 299510529#0 299644700#0 299644700#2 299644700#5 299644700#7 299644700#8 23182848#0 23182848#2 1102900327#0 1209362820 -1210315343 391433166#0 391433166#3 -573760699#3 -573760699#0 -23184151#1 299645496 224026881#0 224026881#2 52493494#0 169130585" />
    </vehicle>
    <vehicle id="trip1-routeB.20" depart="12000.00" type="car-rain">
        <route edges="23182962 189063912#0 207971475#0 207971475#1 284241336#0 284241336#5 52493742 52493741#0 704293239#0 299506410#0 207979572#0 23182767#0 23182990#0 221139568 23182816 -170993800#2 -917873078 -259803253 -972690969 -909651170#1 -909651169 -820421378#1 -909651173#2 -909651172 -972690317 284174992#0 169130585" />
    </vehicle>
    <vehicle id="trip1-routeA.21" depart="12600.00" type="car-rain">
        <route edges="23182962 189063912#0 207971475#0 636473899#0 636473899#6 636473899#9 636473899#10 636473899#12 52493436#8 52493436#12 260124786#0 260124786#2 168914459#0 751068056 168914458#0 299510529#0 299644700#0 299644700#2 299644700#5 299644700#7 299644700#8 23182848#0 23182848#2 1102900327#0 1209362820 -1210315343 391433166#0 391433166#3 -573760699#3 -573760699#0 -23184151#1 299645496 224026881#0 224026881#2 52493494#0 169130585" />
    </vehicle>
    <vehicle id="trip1-routeB.21" depart="12600.00" type="car-rain">
        <route edges="23182962 189063912#0 207971475#0 207971475#1 284241336#0 284241336#5 52493742 52493741#0 704293239#0 299506410#0 207979572#0 23182767#0 23182990#0 221139568 23182816 -170993800#2 -917873078 -259803253 -972690969 -909651170#1 -909651169 -820421378#1 -909651173#2 -909651172 -972690317 284174992#0 169130585" />
    </vehicle>
    <vehicle id="trip1-routeA.22" depart="13200.00" type="car-rain">
        <route edges="23182962 189063912#0 207971475#0 636473899#0 636473899#6 636473899#9 636473899#10 636473899#12 52493436#8 52493436#12 260124786#0 260124786#2 168914459#0 751068056 168914458#0 299510529#0 299644700#0 299644700#2 299644700#5 299644700#7 299644700#8 23182848#0 23182848#2 1102900327#0 1209362820 -1210315343 391433166#0 391433166#3 -573760699#3 -573760699#0 -23184151#1 299645496 224026881#0 224026881#2 52493494#0 169130585" />
    </vehicle>
    <vehicle id="trip1-routeB.22" depart="13200.00" type="car-rain">
        <route edges="23182962 189063912#0 207971475#0 207971475#1 284241336#0 284241336#5 52493742 52493741#0 704293239#0 299506410#0 207979572#0 23182767#0 23182990#0 221139568 23182816 -170993800#2 -917873078 -259803253 -972690969 -909651170#1 -909651169 -820421378#1 -909651173#2 -909651172 -972690317 284174992#0 169130585" />
    </vehicle>
    <vehicle id="trip1-routeA.23" depart="13800.00" type="car-rain">
        <route edges="23182962 189063912#0 207971475#0 636473899#0 636473899#6 636473899#9 636473899#10 636473899#12 52493436#8 52493436#12 260124786#0 260124786#2 168914459#0 751068056 168914458#0 299510529#0 299644700#0 299644700#2 299644700#5 299644700#7 299644700#8 23182848#0 23182848#2 1102900327#0 1209362820 -1210315343 391433166#0 391433166#3 -573760699#3 -573760699#0 -23184151#1 299645496 224026881#0 224026881#2 52493494#0 169130585" />
    </vehicle>
    <vehicle id="trip1-routeB.23" depart="13800.00" type="car-rain">
        <route edges="23182962 189063912#0 207971475#0 207971475#1 284241336#0 284241336#5 52493742 52493741#0 704293239#0 299506410#0 207979572#0 23182767#0 23182990#0 221139568 23182816 -170993800#2 -917873078 -259803253 -972690969 -909651170#1 -909651169 -820421378#1 -909651173#2 -909651172 -972690317 284174992#0 169130585" />
    </vehicle>
    <vehicle id="trip1-routeA.24" depart="14400.00" type="car-rain">
        <route edges="23182962 189063912#0 207971475#0 636473899#0 636473899#6 636473899#9 636473899#10 636473899#12 52493436#8 52493436#12 260124786#0 260124786#2 168914459#0 751068056 168914458#0 299510529#0 299644700#0 299644700#2 299644700#5 299644700#7 299644700#8 23182848#0 23182848#2 1102900327#0 1209362820 -1210315343 391433166#0 391433166#3 -573760699#3 -573760699#0 -23184151#1 299645496 224026881#0 224026881#2 52493494#0 169130585" />
    </vehicle>
    <vehicle id="trip1-routeB.24" depart="14400.00" type="car-rain">
        <route edges="23182962 189063912#0 207971475#0 207971475#1 284241336#0 284241336#5 52493742 52493741#0 704293239#0 299506410#0 207979572#0 23182767#0 23182990#0 221139568 23182816 -170993800#2 -917873078 -259803253 -972690969 -909651170#1 -909651169 -820421378#1 -909651173#2 -909651172 -972690317 284174992#0 169130585" />
    </vehicle>
    <vehicle id="trip1-routeA.25" depart="15000.00" type="car-rain">
        <route edges="23182962 189063912#0 207971475#0 636473899#0 636473899#6 636473899#9 636473899#10 636473899#12 52493436#8 52493436#12 260124786#0 260124786#2 168914459#0 751068056 168914458#0 299510529#0 299644700#0 299644700#2 299644700#5 299644700#7 299644700#8 23182848#0 23182848#2 1102900327#0 1209362820 -1210315343 391433166#0 391433166#3 -573760699#3 -573760699#0 -23184151#1 299645496 224026881#0 224026881#2 52493494#0 169130585" />
    </vehicle>
    <vehicle id="trip1-routeB.25" depart="15000.00" type="car-rain">
        <route edges="23182962 189063912#0 207971475#0 207971475#1 284241336#0 284241336#5 52493742 52493741#0 704293239#0 299506410#0 207979572#0 23182767#0 23182990#0 221139568 23182816 -170993800#2 -917873078 -259803253 -972690969 -909651170#1 -909651169 -820421378#1 -909651173#2 -909651172 -972690317 284174992#0 169130585" />
    </vehicle>
    <vehicle id="trip1-routeA.26" depart="15600.00" type="car-rain">
        <route edges="23182962 189063912#0 207971475#0 636473899#0 636473899#6 636473899#9 636473899#10 636473899#12 52493436#8 52493436#12 260124786#0 260124786#2 168914459#0 751068056 168914458#0 299510529#0 299644700#0 299644700#2 299644700#5 299644700#7 299644700#8 23182848#0 23182848#2 1102900327#0 1209362820 -1210315343 391433166#0 391433166#3 -573760699#3 -573760699#0 -23184151#1 299645496 224026881#0 224026881#2 52493494#0 169130585" />
    </vehicle>
    <vehicle id="trip1-routeB.26" depart="15600.00" type="car-rain">
        <route edges="23182962 189063912#0 207971475#0 207971475#1 284241336#0 284241336#5 52493742 52493741#0 704293239#0 299506410#0 207979572#0 23182767#0 23182990#0 221139568 23182816 -170993800#2 -917873078 -259803253 -972690969 -909651170#1 -909651169 -820421378#1 -909651173#2 -909651172 -972690317 284174992#0 169130585" />
    </vehicle>
    <vehicle id="trip1-routeA.27" depart="16200.00" type="car-rain">
        <route edges="23182962 189063912#0 207971475#0 636473899#0 636473899#6 636473899#9 636473899#10 636473899#12 52493436#8 52493436#12 260124786#0 260124786#2 168914459#0 751068056 168914458#0 299510529#0 299644700#0 299644700#2 299644700#5 299644700#7 299644700#8 23182848#0 23182848#2 1102900327#0 1209362820 -1210315343 391433166#0 391433166#3 -573760699#3 -573760699#0 -23184151#1 299645496 224026881#0 224026881#2 52493494#0 169130585" />
    </vehicle>
    <vehicle id="trip1-routeB.27" depart="16200.00" type="car-rain">
        <route edges="23182962 189063912#0 207971475#0 207971475#1 284241336#0 284241336#5 52493742 52493741#0 704293239#0 299506410#0 207979572#0 23182767#0 23182990#0 221139568 23182816 -170993800#2 -917873078 -259803253 -972690969 -909651170#1 -909651169 -820421378#1 -909651173#2 -909651172 -972690317 284174992#0 169130585" />
    </vehicle>
    <vehicle id="trip1-routeA.28" depart="16800.00" type="car-rain">
        <route edges="23182962 189063912#0 207971475#0 636473899#0 636473899#6 636473899#9 636473899#10 636473899#12 52493436#8 52493436#12 260124786#0 260124786#2 168914459#0 751068056 168914458#0 299510529#0 299644700#0 299644700#2 299644700#5 299644700#7 299644700#8 23182848#0 23182848#2 1102900327#0 1209362820 -1210315343 391433166#0 391433166#3 -573760699#3 -573760699#0 -23184151#1 299645496 224026881#0 224026881#2 52493494#0 169130585" />
    </vehicle>
    <vehicle id="trip1-routeB.28" depart="16800.00" type="car-rain">
        <route edges="23182962 189063912#0 207971475#0 207971475#1 284241336#0 284241336#5 52493742 52493741#0 704293239#0 299506410#0 207979572#0 23182767#0 23182990#0 221139568 23182816 -170993800#2 -917873078 -259803253 -972690969 -909651170#1 -909651169 -820421378#1 -909651173#2 -909651172 -972690317 284174992#0 169130585" />
    </vehicle>
    <vehicle id="trip1-routeA.29" depart="17400.00" type="car-rain">
        <route edges="23182962 189063912#0 207971475#0 636473899#0 636473899#6 636473899#9 636473899#10 636473899#12 52493436#8 52493436#12 260124786#0 260124786#2 168914459#0 751068056 168914458#0 299510529#0 299644700#0 299644700#2 299644700#5 299644700#7 299644700#8 23182848#0 23182848#2 1102900327#0 1209362820 -1210315343 391433166#0 391433166#3 -573760699#3 -573760699#0 -23184151#1 299645496 224026881#0 224026881#2 52493494#0 169130585" />
    </vehicle>
    <vehicle id="trip1-routeB.29" depart="17400.00" type="car-rain">
        <route edges="23182962 189063912#0 207971475#0 207971475#1 284241336#0 284241336#5 52493742 52493741#0 704293239#0 299506410#0 207979572#0 23182767#0 23182990#0 221139568 23182816 -170993800#2 -917873078 -259803253 -972690969 -909651170#1 -909651169 -820421378#1 -909651173#2 -909651172 -972690317 284174992#0 169130585" />
    </vehicle>
    <vehicle id="trip1-routeA.30" depart="18000.00" type="car-rain">
        <route edges="23182962 189063912#0 207971475#0 636473899#0 636473899#6 636473899#9 636473899#10 636473899#12 52493436#8 52493436#12 260124786#0 260124786#2 168914459#0 751068056 168914458#0 299510529#0 299644700#0 299644700#2 299644700#5 299644700#7 299644700#8 23182848#0 23182848#2 1102900327#0 1209362820 -1210315343 391433166#0 391433166#3 -573760699#3 -573760699#0 -23184151#1 299645496 224026881#0 224026881#2 52493494#0 169130585" />
    </vehicle>
    <vehicle id="trip1-routeB.30" depart="18000.00" type="car-rain">
        <route edges="23182962 189063912#0 207971475#0 207971475#1 284241336#0 284241336#5 52493742 52493741#0 704293239#0 299506410#0 207979572#0 23182767#0 23182990#0 221139568 23182816 -170993800#2 -917873078 -259803253 -972690969 -909651170#1 -909651169 -820421378#1 -909651173#2 -909651172 -972690317 284174992#0 169130585" />
    </vehicle>
    <vehicle id="trip1-routeA.31" depart="18600.00" type="car-rain">