<additional>
    <vTypes>
        <vType id="car-rain" vClass="passenger" accel="2.0" decel="4.0" length="5.00"
               minGap="3.00" maxSpeed="55.55" emissionClass="HBEFA3/PC_G_EU4" speedFactor="0.9"/>
    </vTypes>
</additional>