<?xml version="1.0" encoding="UTF-8"?>

<!-- generated on 2025-03-23 20:37:20.939778 by osmWebWizard.py UNKNOWN
<configuration>
    <net-file value="C:\Users\george\Desktop\diploma-thesis\2025-03-23-20-36-55\osm.net.xml.gz"/>
    <output-trip-file value="C:\Users\george\Desktop\diploma-thesis\2025-03-23-20-36-55\osm.passenger.trips.xml"/>
    <route-file value="C:\Users\george\Desktop\diploma-thesis\2025-03-23-20-36-55\osm.passenger.rou.xml"/>
    <prefix value="veh"/>
    <trip-attributes value="departLane=&quot;best&quot;"/>
    <fringe-start-attributes value="departSpeed=&quot;max&quot;"/>
    <vehicle-class value="passenger"/>
    <lanes value="True"/>
    <fringe-factor value="5"/>
    <allow-fringe.min-length value="1000.0"/>
    <via-edge-types value="highway.motorway,highway.motorway_link,highway.trunk_link,highway.primary_link,highway.secondary_link,highway.tertiary_link"/>
    <min-distance value="300.0"/>
    <min-distance.fringe value="10.0"/>
    <remove-loops value="True"/>
    <validate value="True"/>
    <end value="36000.0"/>
    <insertion-density value="12.0"/>
</configuration>
-->

<!-- generated on 2025-03-23 20:37:19 by Eclipse SUMO duarouter Version 1.21.0
<duarouterConfiguration xmlns:xsi="http://www.w3.org/2001/XMLSchema-instance" xsi:noNamespaceSchemaLocation="http://sumo.dlr.de/xsd/duarouterConfiguration.xsd">

    <input>
        <net-file value="C:\Users\george\Desktop\diploma-thesis\2025-03-23-20-36-55\osm.net.xml.gz"/>
        <route-files value="C:\Users\george\Desktop\diploma-thesis\2025-03-23-20-36-55\osm.passenger.trips.xml"/>
    </input>

    <output>
        <output-file value="C:\Users\george\Desktop\diploma-thesis\2025-03-23-20-36-55\osm.passenger.trips.xml.tmp"/>
        <alternatives-output value="NUL"/>
        <write-trips value="true"/>
    </output>

    <processing>
        <remove-loops value="true"/>
    </processing>

    <time>
        <begin value="0.0"/>
        <end value="36000.0"/>
    </time>

    <report>
        <no-warnings value="true"/>
        <ignore-errors value="true"/>
        <no-step-log value="true"/>
    </report>

</duarouterConfiguration>
-->

<routes xmlns:xsi="http://www.w3.org/2001/XMLSchema-instance" xsi:noNamespaceSchemaLocation="http://sumo.dlr.de/xsd/routes_file.xsd">
    <vType id="veh_passenger" vClass="passenger"/>
    <trip id="veh0" type="veh_passenger" depart="0.00" departLane="best" from="448921492" to="23184213#0"/>
    <trip id="veh1" type="veh_passenger" depart="3.15" departLane="best" from="189063912#0" to="169130590"/>
    <trip id="veh2" type="veh_passenger" depart="6.31" departLane="best" from="601291176#0" to="52493436#12"/>
    <trip id="veh3" type="veh_passenger" depart="9.46" departLane="best" from="789786774" to="-741087755"/>
    <trip id="veh4" type="veh_passenger" depart="12.62" departLane="best" departSpeed="max" from="167920332#0" to="299644700#5"/>
    <trip id="veh5" type="veh_passenger" depart="15.77" departLane="best" from="482987486#2" to="318678267#6"/>
    <trip id="veh6" type="veh_passenger" depart="18.93" departLane="best" departSpeed="max" from="167920332#0" to="327261701#0"/>
    <trip id="veh7" type="veh_passenger" depart="22.08" departLane="best" departSpeed="max" from="661575900" to="-10976435#0"/>
    <trip id="veh8" type="veh_passenger" depart="25.23" departLane="best" from="660659128" to="560974709"/>
    <trip id="veh9" type="veh_passenger" depart="28.39" departLane="best" from="23182843#1" to="10971776"/>
    <trip id="veh10" type="veh_passenger" depart="31.54" departLane="best" from="909651173#0" to="23182962"/>
    <trip id="veh11" type="veh_passenger" depart="34.70" departLane="best" from="-65388538#2" to="-82682796#0"/>
    <trip id="veh12" type="veh_passenger" depart="37.85" departLane="best" departSpeed="max" from="715534866#0" to="391433168#0"/>
    <trip id="veh13" type="veh_passenger" depart="41.01" departLane="best" departSpeed="max" from="661575900" to="601290888#3"/>
    <trip id="veh14" type="veh_passenger" depart="44.16" departLane="best" from="30481647#0" to="952048768#0"/>
    <trip id="veh15" type="veh_passenger" depart="47.31" departLane="best" from="52493742" to="32015397#6"/>
    <trip id="veh16" type="veh_passenger" depart="50.47" departLane="best" from="687830221#0" to="226869337#0"/>
    <trip id="veh17" type="veh_passenger" depart="53.62" departLane="best" from="741087752" to="32015643#0"/>
    <trip id="veh18" type="veh_passenger" depart="56.78" departLane="best" from="571469975#3" to="-32015501"/>
    <trip id="veh19" type="veh_passenger" depart="59.93" departLane="best" from="167920332#1" to="207979572#0"/>
    <trip id="veh20" type="veh_passenger" depart="63.08" departLane="best" from="-504172673#4" to="169130600#0-AddedOffRampEdge"/>
    <trip id="veh21" type="veh_passenger" depart="66.24" departLane="best" from="-687830223#3" to="207891571#0"/>
    <trip id="veh22" type="veh_passenger" depart="69.39" departLane="best" from="448630612#0" to="23183940#0"/>
    <trip id="veh23" type="veh_passenger" depart="72.55" departLane="best" from="23183949#22" to="168737311#3"/>
    <trip id="veh24" type="veh_passenger" depart="75.70" departLane="best" from="175509062#1" to="892605848"/>
    <trip id="veh25" type="veh_passenger" depart="78.86" departLane="best" from="32015577#1" to="393574947"/>
    <trip id="veh26" type="veh_passenger" depart="82.01" departLane="best" from="10971766#2" to="601290888#0"/>
    <trip id="veh27" type="veh_passenger" depart="85.16" departLane="best" departSpeed="max" from="10741754#0" to="23184093#3"/>
    <trip id="veh28" type="veh_passenger" depart="88.32" departLane="best" from="32015458" to="52493494#0"/>
    <trip id="veh29" type="veh_passenger" depart="91.47" departLane="best" from="704293239#0" to="1101347640#0"/>
    <trip id="veh30" type="veh_passenger" depart="94.63" departLane="best" from="167920332#1" to="-282433035#0"/>
    <trip id="veh31" type="veh_passenger" depart="97.78" departLane="best" from="224026878" to="189099793"/>
    <trip id="veh32" type="veh_passenger" depart="100.94" departLane="best" departSpeed="max" from="1215279323" to="899638870#0"/>
    <trip id="veh33" type="veh_passenger" depart="104.09" departLane="best" from="741733384#0" to="23182767#0"/>
    <trip id="veh34" type="veh_passenger" depart="107.24" departLane="best" from="482987489#5" to="393398563#3"/>
    <trip id="veh35" type="veh_passenger" depart="110.40" departLane="best" from="838111477" to="286067599#6"/>
    <trip id="veh36" type="veh_passenger" depart="113.55" departLane="best" from="170644476#0" to="601290887#7"/>
    <trip id="veh37" type="veh_passenger" depart="116.71" departLane="best" from="32015475#1" to="189099793"/>
    <trip id="veh38" type="veh_passenger" depart="119.86" departLane="best" from="32295538#0" to="-820421378#1"/>
    <trip id="veh40" type="veh_passenger" depart="126.17" departLane="best" departSpeed="max" from="998313582" to="299644700#8"/>
    <trip id="veh41" type="veh_passenger" depart="129.32" departLane="best" departSpeed="max" from="-640214607" to="32015619"/>
    <trip id="veh42" type="veh_passenger" depart="132.48" departLane="best" from="820421378#0" to="46938927#1"/>
    <trip id="veh44" type="veh_passenger" depart="138.79" departLane="best" departSpeed="max" from="-448706635" to="23184093#7"/>
    <trip id="veh45" type="veh_passenger" depart="141.94" departLane="best" from="99060957#0" to="10741747#0"/>
    <trip id="veh46" type="veh_passenger" depart="145.10" departLane="best" from="977757273" to="741245822#1"/>
    <trip id="veh47" type="veh_passenger" depart="148.25" departLane="best" from="-170993800#2" to="601290886#5"/>
    <trip id="veh48" type="veh_passenger" depart="151.40" departLane="best" from="10976951" to="311453391"/>
    <trip id="veh49" type="veh_passenger" depart="154.56" departLane="best" from="175509062#1" to="482987489#5"/>
    <trip id="veh50" type="veh_passenger" depart="157.71" departLane="best" from="-82682785#1" to="26992608#0"/>
    <trip id="veh51" type="veh_passenger" depart="160.87" departLane="best" from="284241336#0" to="909129701#2"/>
    <trip id="veh52" type="veh_passenger" depart="164.02" departLane="best" from="299510181#8" to="1281112404"/>
    <trip id="veh53" type="veh_passenger" depart="167.17" departLane="best" from="830255108#0" to="753627408#0"/>
    <trip id="veh54" type="veh_passenger" depart="170.33" departLane="best" from="219362015#3" to="482987489#2"/>
    <trip id="veh55" type="veh_passenger" depart="173.48" departLane="best" from="384593009" to="10971767#2"/>
    <trip id="veh56" type="veh_passenger" depart="176.64" departLane="best" from="634252645#11" to="31621981"/>
    <trip id="veh57" type="veh_passenger" depart="179.79" departLane="best" from="636473899#6" to="10741747#0"/>
    <trip id="veh58" type="veh_passenger" depart="182.95" departLane="best" from="-10971769#1" to="23182806#0"/>
    <trip id="veh59" type="veh_passenger" depart="186.10" departLane="best" departSpeed="max" from="-188660573" to="881725976#0"/>
    <trip id="veh60" type="veh_passenger" depart="189.25" departLane="best" from="222897513#4" to="-435483353"/>
    <trip id="veh61" type="veh_passenger" depart="192.41" departLane="best" from="749190996" to="90533474#3"/>
    <trip id="veh62" type="veh_passenger" depart="195.56" departLane="best" from="-573760699#3" to="299510529#0"/>
    <trip id="veh63" type="veh_passenger" depart="198.72" departLane="best" from="-476377673" to="634252644#0"/>
    <trip id="veh64" type="veh_passenger" depart="201.87" departLane="best" departSpeed="max" from="295056178#0" to="32015344#0"/>
    <trip id="veh65" type="veh_passenger" depart="205.03" departLane="best" from="170993800#0" to="286067598#0"/>
    <trip id="veh66" type="veh_passenger" depart="208.18" departLane="best" from="259803254#0" to="168914458#0"/>
    <trip id="veh67" type="veh_passenger" depart="211.33" departLane="best" from="311408820#0" to="601290888#3"/>
    <trip id="veh68" type="veh_passenger" depart="214.49" departLane="best" from="636473899#0" to="224027126"/>
    <trip id="veh69" type="veh_passenger" depart="217.64" departLane="best" from="98350968#0" to="49288908#0"/>
    <trip id="veh70" type="veh_passenger" depart="220.80" departLane="best" from="261671454#0" to="30481498#0"/>
    <trip id="veh71" type="veh_passenger" depart="223.95" departLane="best" departSpeed="max" from="-899624046" to="169130590"/>
    <trip id="veh72" type="veh_passenger" depart="227.11" departLane="best" from="23182838#0" to="324752782#0"/>
    <trip id="veh74" type="veh_passenger" depart="233.41" departLane="best" from="167920332#1" to="838111477"/>
    <trip id="veh75" type="veh_passenger" depart="236.57" departLane="best" from="736420840#1" to="-52493490#1"/>
    <trip id="veh76" type="veh_passenger" depart="239.72" departLane="best" from="168737311#3" to="1203055989"/>
    <trip id="veh77" type="veh_passenger" depart="242.88" departLane="best" from="-30481514#2" to="10741722#2"/>
    <trip id="veh79" type="veh_passenger" depart="249.19" departLane="best" departSpeed="max" from="295056178#0" to="636751671#0"/>
    <trip id="veh80" type="veh_passenger" depart="252.34" departLane="best" departSpeed="max" from="-66868004#1" to="260824573#0"/>
    <trip id="veh81" type="veh_passenger" depart="255.49" departLane="best" from="259803255#0" to="295059515"/>
    <trip id="veh82" type="veh_passenger" depart="258.65" departLane="best" from="601290888#7" to="5214469#0"/>
    <trip id="veh83" type="veh_passenger" depart="261.80" departLane="best" from="98350932#0" to="-85692476#0"/>
    <trip id="veh84" type="veh_passenger" depart="264.96" departLane="best" from="23184225#0" to="23182965#0"/>
    <trip id="veh85" type="veh_passenger" depart="268.11" departLane="best" from="741087752" to="175509066#2"/>
    <trip id="veh86" type="veh_passenger" depart="271.26" departLane="best" from="10976958#1" to="284241336#5"/>
    <trip id="veh87" type="veh_passenger" depart="274.42" departLane="best" from="259803253" to="207891571#0"/>
    <trip id="veh89" type="veh_passenger" depart="280.73" departLane="best" from="280005151#5" to="741245823#0"/>
    <trip id="veh90" type="veh_passenger" depart="283.88" departLane="best" from="32015189#0" to="-391433166#2"/>
    <trip id="veh91" type="veh_passenger" depart="287.04" departLane="best" departSpeed="max" from="998313582" to="711888497#0"/>
    <trip id="veh92" type="veh_passenger" depart="290.19" departLane="best" from="972965169" to="881725976#0"/>
    <trip id="veh93" type="veh_passenger" depart="293.34" departLane="best" departSpeed="max" from="715534866#0" to="1101347640#0"/>
    <trip id="veh94" type="veh_passenger" depart="296.50" departLane="best" from="298383050#0" to="168914459#0"/>
    <trip id="veh95" type="veh_passenger" depart="299.65" departLane="best" from="-23184213#2" to="-435483353"/>
    <trip id="veh96" type="veh_passenger" depart="302.81" departLane="best" from="23184093#0" to="601290887#5"/>
    <trip id="veh97" type="veh_passenger" depart="305.96" departLane="best" from="170993800#0" to="636742500#3"/>
    <trip id="veh98" type="veh_passenger" depart="309.12" departLane="best" from="284241336#5" to="-259803253"/>
    <trip id="veh99" type="veh_passenger" depart="312.27" departLane="best" from="909651173#0" to="98350968#0"/>
    <trip id="veh100" type="veh_passenger" depart="315.42" departLane="best" from="10741722#3" to="221139568-AddedOffRampEdge"/>
    <trip id="veh101" type="veh_passenger" depart="318.58" departLane="best" from="972690968#0" to="32295538#0"/>
    <trip id="veh102" type="veh_passenger" depart="321.73" departLane="best" from="-391433166#2" to="32357772#0"/>
    <trip id="veh103" type="veh_passenger" depart="324.89" departLane="best" from="299510529#0" to="170644473#0"/>
    <trip id="veh104" type="veh_passenger" depart="328.04" departLane="best" from="10741747#0" to="-909651173#2"/>
    <trip id="veh105" type="veh_passenger" depart="331.20" departLane="best" from="-504172673#4" to="132654904"/>
    <trip id="veh107" type="veh_passenger" depart="337.50" departLane="best" from="168725549#0" to="-98350927#1"/>
    <trip id="veh108" type="veh_passenger" depart="340.66" departLane="best" from="776739295" to="175509062#4"/>
    <trip id="veh110" type="veh_passenger" depart="346.97" departLane="best" from="250756985#0" to="32344456"/>
    <trip id="veh111" type="veh_passenger" depart="350.12" departLane="best" from="299644700#7" to="887747034"/>
    <trip id="veh112" type="veh_passenger" depart="353.28" departLane="best" from="1203055989" to="601290886#11"/>
    <trip id="veh113" type="veh_passenger" depart="356.43" departLane="best" from="168737311#3" to="23184187#2"/>
    <trip id="veh115" type="veh_passenger" depart="362.74" departLane="best" from="-224026879" to="60958845#4"/>
    <trip id="veh116" type="veh_passenger" depart="365.89" departLane="best" departSpeed="max" from="-483384217" to="286067599#0"/>
    <trip id="veh117" type="veh_passenger" depart="369.05" departLane="best" departSpeed="max" from="998313582" to="99060957#0"/>
    <trip id="veh118" type="veh_passenger" depart="372.20" departLane="best" departSpeed="max" from="-483384217" to="168914459#0"/>
    <trip id="veh119" type="veh_passenger" depart="375.35" departLane="best" from="-170993800#2" to="881725981"/>
    <trip id="veh120" type="veh_passenger" depart="378.51" departLane="best" from="751068056" to="774867419#0"/>
    <trip id="veh121" type="veh_passenger" depart="381.66" departLane="best" from="23183949#2" to="52493183"/>
    <trip id="veh122" type="veh_passenger" depart="384.82" departLane="best" from="687831199#0" to="571469976#0"/>
    <trip id="veh123" type="veh_passenger" depart="387.97" departLane="best" from="482987489#4" to="-10976435#0"/>
    <trip id="veh125" type="veh_passenger" depart="394.28" departLane="best" from="50033410#1" to="896087076#0"/>
    <trip id="veh126" type="veh_passenger" depart="397.43" departLane="best" from="-749907669#1" to="32015458"/>
    <trip id="veh127" type="veh_passenger" depart="400.59" departLane="best" from="189063911#0" to="393398563#1"/>
    <trip id="veh128" type="veh_passenger" depart="403.74" departLane="best" from="601290886#6" to="167920360#1"/>
    <trip id="veh129" type="veh_passenger" depart="406.90" departLane="best" departSpeed="max" from="435483360" to="189099793"/>
    <trip id="veh130" type="veh_passenger" depart="410.05" departLane="best" from="298744689" to="838111477"/>
    <trip id="veh131" type="veh_passenger" depart="413.21" departLane="best" from="711888497#0" to="-81151737#1"/>
    <trip id="veh132" type="veh_passenger" depart="416.36" departLane="best" from="259803255#0" to="194625568"/>
    <trip id="veh133" type="veh_passenger" depart="419.51" departLane="best" departSpeed="max" from="-115333519#1" to="634252645#5"/>
    <trip id="veh134" type="veh_passenger" depart="422.67" departLane="best" departSpeed="max" from="448706624#0" to="189099792#0"/>
    <trip id="veh135" type="veh_passenger" depart="425.82" departLane="best" from="601303882#9" to="32015397#5"/>
    <trip id="veh136" type="veh_passenger" depart="428.98" departLane="best" departSpeed="max" from="260124785" to="-10976435#0"/>
    <trip id="veh137" type="veh_passenger" depart="432.13" departLane="best" from="-50033410#0" to="789786771#0"/>
    <trip id="veh138" type="veh_passenger" depart="435.29" departLane="best" from="81713130#0" to="318678267#8"/>
    <trip id="veh139" type="veh_passenger" depart="438.44" departLane="best" departSpeed="max" from="100848992#0" to="100850034#0"/>
    <trip id="veh140" type="veh_passenger" depart="441.59" departLane="best" from="65388539#4" to="741245822#1"/>
    <trip id="veh141" type="veh_passenger" depart="444.75" departLane="best" from="803344980#0" to="168904430"/>
    <trip id="veh142" type="veh_passenger" depart="447.90" departLane="best" from="169130571" to="-85698085"/>
    <trip id="veh143" type="veh_passenger" depart="451.06" departLane="best" from="636474443#1" to="-909651172"/>
    <trip id="veh144" type="veh_passenger" depart="454.21" departLane="best" from="23184691#0" to="448706635"/>
    <trip id="veh145" type="veh_passenger" depart="457.36" departLane="best" from="10741722#2" to="881725976#0"/>
    <trip id="veh146" type="veh_passenger" depart="460.52" departLane="best" departSpeed="max" from="741087755" to="972965170#0"/>
    <trip id="veh147" type="veh_passenger" depart="463.67" departLane="best" from="-224026880" to="601290889#6"/>
    <trip id="veh148" type="veh_passenger" depart="466.83" departLane="best" from="23182796#5" to="881725976#0"/>
    <trip id="veh149" type="veh_passenger" depart="469.98" departLane="best" from="170644476#0" to="741721487#0"/>
    <trip id="veh150" type="veh_passenger" depart="473.14" departLane="best" departSpeed="max" from="661575900" to="189099793"/>
    <trip id="veh151" type="veh_passenger" depart="476.29" departLane="best" departSpeed="max" from="64094754#0" to="-909651170#1"/>
    <trip id="veh152" type="veh_passenger" depart="479.44" departLane="best" from="741245823#2" to="741087756#0"/>
    <trip id="veh153" type="veh_passenger" depart="482.60" departLane="best" departSpeed="max" from="167920332#0" to="677284299#1"/>
    <trip id="veh154" type="veh_passenger" depart="485.75" departLane="best" from="285118922" to="222941080#6"/>
    <trip id="veh155" type="veh_passenger" depart="488.91" departLane="best" from="65388539#2" to="169130590"/>
    <trip id="veh156" type="veh_passenger" depart="492.06" departLane="best" from="-224026845#1" to="167907745#0"/>
    <trip id="veh157" type="veh_passenger" depart="495.22" departLane="best" from="23182774#3" to="741733384#0"/>
    <trip id="veh158" type="veh_passenger" depart="498.37" departLane="best" departSpeed="max" from="45879106" to="23184213#1"/>
    <trip id="veh159" type="veh_passenger" depart="501.52" departLane="best" departSpeed="max" from="98350927#0" to="311453391"/>
    <trip id="veh160" type="veh_passenger" depart="504.68" departLane="best" from="887747034" to="-972690317"/>
    <trip id="veh161" type="veh_passenger" depart="507.83" departLane="best" from="972965170#0" to="1270889032#0"/>
    <trip id="veh162" type="veh_passenger" depart="510.99" departLane="best" from="922523361#0" to="189099793"/>
    <trip id="veh163" type="veh_passenger" depart="514.14" departLane="best" from="820421378#0" to="261671454#0"/>
    <trip id="veh164" type="veh_passenger" depart="517.30" departLane="best" from="601290888#7" to="226869337#0"/>
    <trip id="veh165" type="veh_passenger" depart="520.45" departLane="best" from="380901379#0" to="299657353#0"/>
    <trip id="veh166" type="veh_passenger" depart="523.60" departLane="best" from="23184108#1" to="32015643#0"/>
    <trip id="veh167" type="veh_passenger" depart="526.76" departLane="best" from="169130600#0-AddedOffRampEdge" to="583800482"/>
    <trip id="veh168" type="veh_passenger" depart="529.91" departLane="best" from="-10971769#4" to="881725976#0"/>
    <trip id="veh169" type="veh_passenger" depart="533.07" departLane="best" from="309269227" to="601290886#4"/>
    <trip id="veh170" type="veh_passenger" depart="536.22" departLane="best" from="601303883#0" to="1203055989"/>
    <trip id="veh171" type="veh_passenger" depart="539.38" departLane="best" from="23183939#1" to="-52080450"/>
    <trip id="veh172" type="veh_passenger" depart="542.53" departLane="best" from="50033422#0" to="734707701#7"/>
    <trip id="veh174" type="veh_passenger" depart="548.84" departLane="best" from="601290886#8" to="222897513#0"/>
    <trip id="veh175" type="veh_passenger" depart="551.99" departLane="best" from="222899032#0" to="23216541#0"/>
    <trip id="veh176" type="veh_passenger" depart="555.15" departLane="best" from="23184225#0" to="221139568"/>
    <trip id="veh178" type="veh_passenger" depart="561.45" departLane="best" from="98198128#2" to="52493436#12"/>
    <trip id="veh179" type="veh_passenger" depart="564.61" departLane="best" from="80404724#9" to="435483355"/>
    <trip id="veh180" type="veh_passenger" depart="567.76" departLane="best" from="221139568" to="32015255#0"/>
    <trip id="veh181" type="veh_passenger" depart="570.92" departLane="best" from="-10971769#0" to="207979569#3"/>
    <trip id="veh182" type="veh_passenger" depart="574.07" departLane="best" departSpeed="max" from="260124785" to="32295538#0"/>
    <trip id="veh183" type="veh_passenger" depart="577.23" departLane="best" from="482987489#5" to="-972690969"/>
    <trip id="veh184" type="veh_passenger" depart="580.38" departLane="best" from="280005151#4" to="168914459#0"/>
    <trip id="veh185" type="veh_passenger" depart="583.53" departLane="best" departSpeed="max" from="295056178#0" to="82682796#0"/>
    <trip id="veh186" type="veh_passenger" depart="586.69" departLane="best" from="65388539#4" to="115333519#0"/>
    <trip id="veh187" type="veh_passenger" depart="589.84" departLane="best" from="573760699#0" to="299665378#0"/>
    <trip id="veh188" type="veh_passenger" depart="593.00" departLane="best" departSpeed="max" from="435483360" to="23182848#2"/>
    <trip id="veh189" type="veh_passenger" depart="596.15" departLane="best" from="66868070" to="60958845#2"/>
    <trip id="veh190" type="veh_passenger" depart="599.31" departLane="best" from="-51249532" to="169130590"/>
    <trip id="veh191" type="veh_passenger" depart="602.46" departLane="best" from="1098886968#0" to="-23184151#1"/>
    <trip id="veh192" type="veh_passenger" depart="605.61" departLane="best" from="168914460" to="298744689"/>
    <trip id="veh193" type="veh_passenger" depart="608.77" departLane="best" from="717328985#0" to="-573760699#3"/>
    <trip id="veh194" type="veh_passenger" depart="611.92" departLane="best" from="238865258#3" to="46938927#5"/>
    <trip id="veh195" type="veh_passenger" depart="615.08" departLane="best" from="10976970#1" to="54700033#0"/>
    <trip id="veh196" type="veh_passenger" depart="618.23" departLane="best" from="299257516" to="170993800#0"/>
    <trip id="veh198" type="veh_passenger" depart="624.54" departLane="best" from="624053070" to="634252645#2"/>
    <trip id="veh199" type="veh_passenger" depart="627.69" departLane="best" from="749907669#0" to="259803255#0"/>
    <trip id="veh200" type="veh_passenger" depart="630.85" departLane="best" departSpeed="max" from="10971769#0" to="-909651169"/>
    <trip id="veh201" type="veh_passenger" depart="634.00" departLane="best" from="299644700#0" to="-365722346"/>
    <trip id="veh202" type="veh_passenger" depart="637.16" departLane="best" from="169130571" to="734707701#7"/>
    <trip id="veh203" type="veh_passenger" depart="640.31" departLane="best" from="284241337#0" to="660659127"/>
    <trip id="veh205" type="veh_passenger" depart="646.62" departLane="best" from="33878525#0" to="907519287#0"/>
    <trip id="veh206" type="veh_passenger" depart="649.77" departLane="best" from="909651170#0" to="41806639"/>
    <trip id="veh207" type="veh_passenger" depart="652.93" departLane="best" from="601290886#7" to="299644700#5"/>
    <trip id="veh208" type="veh_passenger" depart="656.08" departLane="best" from="687830221#4" to="299510181#8"/>
    <trip id="veh209" type="veh_passenger" depart="659.24" departLane="best" from="789796814" to="601294000"/>
    <trip id="veh210" type="veh_passenger" depart="662.39" departLane="best" departSpeed="max" from="295056178#0" to="189063911#0"/>
    <trip id="veh211" type="veh_passenger" depart="665.54" departLane="best" from="168914464#0" to="482987489#0"/>
    <trip id="veh212" type="veh_passenger" depart="668.70" departLane="best" from="634252645#14" to="30481514#3"/>
    <trip id="veh214" type="veh_passenger" depart="675.01" departLane="best" departSpeed="max" from="-50033410#2" to="207979569#0"/>
    <trip id="veh215" type="veh_passenger" depart="678.16" departLane="best" from="189063911#0" to="23182775"/>
    <trip id="veh216" type="veh_passenger" depart="681.32" departLane="best" from="311408820#0" to="10741751#0"/>
    <trip id="veh217" type="veh_passenger" depart="684.47" departLane="best" from="167920360#0" to="54700033#0"/>
    <trip id="veh218" type="veh_passenger" depart="687.62" departLane="best" from="5728512" to="-448706624#1"/>
    <trip id="veh219" type="veh_passenger" depart="690.78" departLane="best" departSpeed="max" from="23214115#0" to="31622008"/>
    <trip id="veh220" type="veh_passenger" depart="693.93" departLane="best" from="32295538#0" to="54700033#0"/>
    <trip id="veh221" type="veh_passenger" depart="697.09" departLane="best" from="734707701#9" to="634252645#11"/>
    <trip id="veh222" type="veh_passenger" depart="700.24" departLane="best" from="23184093#5" to="-10976435#0"/>
    <trip id="veh223" type="veh_passenger" depart="703.40" departLane="best" from="23183271#0" to="61031977"/>
    <trip id="veh224" type="veh_passenger" depart="706.55" departLane="best" from="734707701#3" to="909129701#1"/>
    <trip id="veh225" type="veh_passenger" depart="709.70" departLane="best" from="31621993#0" to="391433168#0"/>
    <trip id="veh227" type="veh_passenger" depart="716.01" departLane="best" from="260824573#0" to="-259803253"/>
    <trip id="veh228" type="veh_passenger" depart="719.17" departLane="best" from="23182837#2" to="52493436#8"/>
    <trip id="veh229" type="veh_passenger" depart="722.32" departLane="best" from="23184225#4" to="10976972#2"/>
    <trip id="veh230" type="veh_passenger" depart="725.48" departLane="best" from="294492607#0" to="100850034#0"/>
    <trip id="veh231" type="veh_passenger" depart="728.63" departLane="best" departSpeed="max" from="435483340" to="-238865258#1"/>
    <trip id="veh232" type="veh_passenger" depart="731.78" departLane="best" from="23184174#0" to="32015504#0"/>
    <trip id="veh233" type="veh_passenger" depart="734.94" departLane="best" from="23184133" to="482987489#7"/>
    <trip id="veh234" type="veh_passenger" depart="738.09" departLane="best" from="830255108#0" to="294492601#0"/>
    <trip id="veh235" type="veh_passenger" depart="741.25" departLane="best" from="32015487#1" to="23184093#0"/>
    <trip id="veh236" type="veh_passenger" depart="744.40" departLane="best" from="1267413533" to="299657353#2"/>
    <trip id="veh237" type="veh_passenger" depart="747.56" departLane="best" from="634252645#10" to="23184093#0"/>
    <trip id="veh238" type="veh_passenger" depart="750.71" departLane="best" from="624053070" to="704293238"/>
    <trip id="veh239" type="veh_passenger" depart="753.86" departLane="best" from="170644475#0" to="-715534866#0"/>
    <trip id="veh240" type="veh_passenger" depart="757.02" departLane="best" departSpeed="max" from="-188660573" to="31621981"/>
    <trip id="veh241" type="veh_passenger" depart="760.17" departLane="best" departSpeed="max" from="998313582" to="23182987#0"/>
    <trip id="veh242" type="veh_passenger" depart="763.33" departLane="best" from="482987486#2" to="636473899#9"/>
    <trip id="veh243" type="veh_passenger" depart="766.48" departLane="best" from="482987489#0" to="62330706#0"/>
    <trip id="veh244" type="veh_passenger" depart="769.63" departLane="best" from="909129701#1" to="167920332#1"/>
    <trip id="veh245" type="veh_passenger" depart="772.79" departLane="best" from="193384535" to="10971767#0"/>
    <trip id="veh247" type="veh_passenger" depart="779.10" departLane="best" from="32015487#0" to="168914464#0"/>
    <trip id="veh248" type="veh_passenger" depart="782.25" departLane="best" from="560974709" to="634252645#13"/>
    <trip id="veh249" type="veh_passenger" depart="785.41" departLane="best" from="10741758#1" to="393398564#1"/>
    <trip id="veh251" type="veh_passenger" depart="791.71" departLane="best" from="670812431#0" to="922515461#0"/>
    <trip id="veh252" type="veh_passenger" depart="794.87" departLane="best" from="-81151737#1" to="23184213#2"/>
    <trip id="veh253" type="veh_passenger" depart="798.02" departLane="best" from="222941080#6" to="52493436#12"/>