<?xml version="1.0" encoding="UTF-8"?>

<!-- generated on 2025-03-23 20:37:17.602147 by osmWebWizard.py UNKNOWN
<configuration>
    <net-file value="C:\Users\george\Desktop\diploma-thesis\2025-03-23-20-36-55\osm.net.xml.gz"/>
    <ptlines-file value="C:\Users\george\Desktop\diploma-thesis\2025-03-23-20-36-55\osm_ptlines.xml"/>
    <ptstops-file value="C:\Users\george\Desktop\diploma-thesis\2025-03-23-20-36-55\osm_stops.add.xml"/>
    <output-file value="C:\Users\george\Desktop\diploma-thesis\2025-03-23-20-36-55\osm_pt.rou.xml"/>
    <stopinfos-file value="C:\Users\george\Desktop\diploma-thesis\2025-03-23-20-36-55\stopinfos.xml"/>
    <routes-file value="C:\Users\george\Desktop\diploma-thesis\2025-03-23-20-36-55\vehroutes.xml"/>
    <trips-file value="C:\Users\george\Desktop\diploma-thesis\2025-03-23-20-36-55\trips.trips.xml"/>
    <end value="36000.0"/>
    <min-stops value="0"/>
    <extend-to-fringe value="True"/>
    <random-begin value="True"/>
    <seed value="42"/>
    <ignore-errors value="True"/>
    <vtype-prefix value="pt_"/>
    <verbose value="True"/>
</configuration>
-->

<routes xmlns:xsi="http://www.w3.org/2001/XMLSchema-instance" xsi:noNamespaceSchemaLocation="http://sumo.dlr.de/xsd/routes_file.xsd">
    <vType id="pt_bus" vClass="bus"/>
    <vType id="pt_tram" vClass="tram"/>
    <vType id="pt_train" vClass="rail"/>
    <vType id="pt_subway" vClass="subway"/>
    <vType id="pt_light_rail" vClass="rail_urban"/>
    <vType id="pt_monorail" vClass="rail_urban"/>
    <vType id="pt_trolleybus" vClass="bus"/>
    <vType id="pt_minibus" vClass="bus"/>
    <vType id="pt_share_taxi" vClass="taxi"/>
    <vType id="pt_aerialway" vClass="cable_car" length="2.5" width="2" personCapacity="4"/>
    <vType id="pt_ferry" vClass="ship"/>
    <route id="pt_trolleybus_10:0" color="234,118,0" edges="167920332#0 167920332#1 5214469#0 922523361#0 169130609#0 169130600#0 169130600#0-AddedOffRampEdge 881725976#0" >
        <stop busStop="2560629818" duration="20" until="107.0"/> <!-- ΠΙΝΑΚΟΘΗΚΗ -->
    </route>
    <route id="pt_bus_214:0" edges="295056177#0 881725975#0 -972690316#2 -295056177#1" >
        <stop busStop="6644789228" duration="20" until="46.0"/> <!-- ΕΥΑΓΓΕΛΙΣΜΟΣ -->
    </route>
    <route id="pt_bus_051:1" edges="741087752 286070634#0" >
        <stop busStop="3459098593" duration="20" until="45.0"/> <!-- ΕΘΝΙΚΟ ΘΕΑΤΡΟ -->
    </route>
    <route id="pt_bus_022:0" edges="327261701#0 168914464#0 23183273#0 380901379#0 751068056 309269227" >
        <stop busStop="10572209196" duration="20" until="40.0"/> <!-- ΑΦΕΤΗΡΙΑ - ΣΙΝΑ -->
    </route>
    <route id="pt_bus_500:2" edges="260124785 702087350 755022871#0 189099792#0 -82682785#1 -82682785#0 384593009 384593008#0 838111477 -82682796#1 10741758#0 10741758#1 10741722#0 10741722#2 10741722#3 741087756#0 741087756#1 -741087755" >
        <stop busStop="2515049716" duration="20" until="36.0"/> <!-- ΠΟΛΥΤΕΧΝΕΙΟ -->
    </route>
    <route id="pt_bus_051:0" edges="1098831917 741033482 82682796#0 82682796#1 384593007 284503674#0 972965170#0 972965169 10976960#3 10976960#8 741087752" >
        <stop busStop="2786681834" duration="20" until="51.0"/> <!-- ΒΑΘΗ -->
    </route>
    <route id="pt_bus_732:0" edges="10741754#0 222899032#0 222899032#1 284503674#0 972965170#0 32245113#0 741733384#0 260824573#0 260824573#3 189099792#0 10741751#0" >
        <stop busStop="11877289039" duration="20" until="125.0"/> <!-- ΧΑΛΚΟΚΟΝΔΥΛΗ -->
    </route>
    <route id="pt_bus_Β9:0" color="0,149,200" edges="32245113#0 741733384#0 260824573#0 260824573#3 189099792#0 10741751#0" >
        <stop busStop="1997456424" duration="20" until="110.0"/> <!-- ΣΤΟΥΡΝΑΡΗ -->
    </route>
    <route id="pt_bus_046:0" edges="741721487#0" >
        <stop busStop="2786689547" duration="20" until="36.0"/> <!-- ΠΟΛΥΤΕΧΝΕΙΟ -->
    </route>
    <route id="pt_bus_Ε14:0" color="0,149,200" edges="167920332#0 167920332#1 221211079 52493502#0 170644475#0 52493497#0 909651168 789786774 909651173#0 820421378#0 909651169 909651170#0 295056184#0 259803253 830255108#0 170993800#0 5728492#0 87082472 560974709 87082462#0-AddedOnRampEdge 87082462#0 789796814 23182767#0 23182987#0" >
        <stop busStop="1792445582" duration="20" until="89.0"/> <!-- ΝΟΣΟΚΟΜΕΙΟ ΕΥΑΓΓΕΛΙΣΜΟΣ -->
    </route>
    <route id="pt_bus_790:0" edges="741087755 589664316#0 670872012#0 280005152#0 725187180 298298663#0 23182962 189063912#0 207971475#0 207971475#1 284241336#0 284241336#5 52493742 52493741#0 704293239#0 299506410#0 207979572#0 23182767#0 23182987#0" >
        <stop busStop="3459200593" duration="20" until="83.0"/> <!-- None -->
    </route>
    <route id="pt_trolleybus_21:0" color="yellow" edges="741087755 589664316#0 670872012#0 -670872012#2 -589664316#3 -741087755" >
        <stop busStop="3459098893" duration="20" until="86.0"/> <!-- None -->
    </route>
    <route id="pt_bus_049:0" edges="741087755 589664316#0 670872012#0 280005152#0 725187180 977757276" >
        <stop busStop="3940080735" duration="20" until="74.0"/> <!-- None -->
    </route>
    <route id="pt_trolleybus_10:1" color="234,118,0" edges="295056178#0 881725977#0 169130603#0 169130590" >
        <stop busStop="2560629699" duration="20" until="72.0"/> <!-- ΠΙΝΑΚΟΘΗΚΗ -->
    </route>
    <route id="pt_bus_220:0" edges="661575900 169130571 922515458#0 170644476#0 659991805#0 169130582#0 922515461#0" >
        <stop busStop="1818038857" duration="20" until="77.0"/> <!-- ΧΙΛΤΟΝ -->
    </route>
    <route id="pt_bus_235:0" edges="167920332#0 167920332#1 221211079 52493502#0 170644475#0 169130585 734708564#0 659991805#0 169130582#0 922515461#0" >
        <stop busStop="1792445582" duration="20" until="89.0"/> <!-- ΝΟΣΟΚΟΜΕΙΟ ΕΥΑΓΓΕΛΙΣΜΟΣ -->
    </route>
    <route id="pt_trolleybus_1:0" color="yellow" edges="741087755 589664316#0 670872012#0 280005152#0 725187180 298298663#0 23182962 189063912#0 207971475#0 207971475#1 284241336#0 284241336#5 52493742 52493741#0 704293239#0 299506410#0 207979572#0 23182767#0 23182987#0" >
        <stop busStop="3459098893" duration="20" until="77.0"/> <!-- None -->
    </route>
    <route id="pt_bus_203:0" edges="295056177#0 881725975#0 -972690316#2 -295056177#1" >
        <stop busStop="6644789228" duration="20" until="47.0"/> <!-- ΕΥΑΓΓΕΛΙΣΜΟΣ -->
    </route>
    <route id="pt_bus_035:0" edges="601294009#0 298383050#0 298383050#1 298383050#2 52080450 52080446#0 52080446#1 741721487#0 311408820#0 311408820#5 311408820#8 168737311#0 168737311#3 32295709 207971475#0 207971475#1 284241336#0 1098886968#0 10976954#0 742016387#0 286067599#0 286067599#2 286067599#6 286067599#7 286067599#8 -717328985#3 -715534866#1 -715534866#0" >
        <stop busStop="2786688743" duration="20" until="38.0"/> <!-- ΠΛ. ΕΞΑΡΧΕΙΩΝ -->
    </route>
    <route id="pt_subway_Μ2:0" color="218,41,28" edges="799826579 799826592" >
        <stop busStop="7480425252" duration="20" until="45.0"/> <!-- Σύνταγμα -->
        <stop busStop="7480425260" duration="20" until="107.0"/> <!-- Πανεπιστήμιο -->
        <stop busStop="7480425272" duration="20" until="171.0"/> <!-- Ομόνοια -->
    </route>
    <route id="pt_bus_500:1" edges="260124785 702087350 311408820#0 311408820#5 311408820#8 168737311#0 168737311#3 32295709 207971475#0 207971475#1 284241336#0 1098886968#0 10976954#0 742016387#0 286067599#0 286067599#2 286067599#6 286067599#7 286067599#8 -717328985#3 -715534866#1 -715534866#0" >
        <stop busStop="2515049716" duration="20" until="39.0"/> <!-- ΠΟΛΥΤΕΧΝΕΙΟ -->
    </route>
    <route id="pt_bus_051:2" edges="1098831917 741033482 82682796#0 82682796#1 384593007 284503674#0 82682799 85392263#1 10741758#1 10741722#0 10741722#2 10741722#3 286070634#0" >
        <stop busStop="2786681834" duration="20" until="53.0"/> <!-- ΒΑΘΗ -->
    </route>
    <route id="pt_bus_Χ14_ΣΥΝΤΑΓΜΑ_-_ΚΗΦΙΣΙΑ:0" edges="221139568 221139568-AddedOffRampEdge 298744689 23182816 -170993800#2 -917873078 -259803253 -972690969 -909651170#1 -909651169 -820421378#1 -909651173#2 -909651172 -972690317 284174992#0 169130585 734708564#0 169130603#0 169130590" >
        <stop busStop="-7021774778" duration="20" until="79.0"/> <!-- ΣΥΝΤΑΓΜΑ -->
    </route>
    <route id="pt_bus_Α2:0" edges="380901379#0 751068056 168914458#0 299510529#0 299644700#0 299644700#2 299644700#5 299644700#7 299644700#8 298828555#0 170993800#0 5728492#0 87082472 560974709" >
        <stop busStop="7137782788" duration="20" until="33.0"/> <!-- ΑΦΕΤΗΡΙΑ - ΡΗΓΑ ΦΕΡΑΙΟΥ -->
    </route>
    <route id="pt_bus_500:3" edges="741087755 589664316#0 670872012#0 280005152#0 725187180 298298663#0 23182962 32295538#0 -168737311#11 -168737311#2 -311408820#10 -311408820#7 -311408820#4 755022871#0 189099793" >
        <stop busStop="3459098893" duration="20" until="52.0"/> <!-- None -->
    </route>
    <route id="pt_subway_Μ3:0" color="16,6,159" edges="799602875 799602876 800265935" >
        <stop busStop="7478322261" duration="20" until="57.0"/> <!-- Ευαγγελισμός -->
        <stop busStop="7478372541" duration="20" until="140.0"/> <!-- Σύνταγμα -->
        <stop busStop="7478372529" duration="20" until="214.0"/> <!-- Μοναστηράκι -->
    </route>
    <route id="pt_bus_209:0" edges="23182767#0" >
        <stop busStop="2182353004" duration="20" until="46.0"/> <!-- None -->
    </route>
    <route id="pt_trolleybus_4:0" color="yellow" edges="260124785 702087350 311408820#0 311408820#5 311408820#8 168737311#0 168737311#3 32295709 207971475#0 207971475#1 284241336#0 284241336#5 52493742 52493741#0 704293239#0 299506410#0 207979572#0 23182767#0 23182987#0" >
        <stop busStop="2515049716" duration="20" until="38.0"/> <!-- ΠΟΛΥΤΕΧΝΕΙΟ -->
    </route>
    <route id="pt_trolleybus_5:0" color="234,118,0" edges="260124785 702087350 311408820#0 311408820#5 311408820#8 168737311#0 168737311#3 32295709 207971475#0 207971475#1 284241336#0 284241336#5 52493742 52493741#0 704293239#0 299506410#0 207979572#0 23182767#0 23182987#0" >
        <stop busStop="2515049716" duration="20" until="36.0"/> <!-- ΠΟΛΥΤΕΧΝΕΙΟ -->
    </route>
    <route id="pt_subway_Μ3:1" color="16,6,159" edges="799602878 799602880" >
        <stop busStop="7478372546" duration="20" until="45.0"/> <!-- Μοναστηράκι -->
        <stop busStop="7478372558" duration="20" until="118.0"/> <!-- Σύνταγμα -->
        <stop busStop="7478372569" duration="20" until="203.0"/> <!-- Ευαγγελισμός -->
    </route>
    <route id="pt_bus_500:0" edges="715534866#0 715534866#1 717328985#0 -286067599#11 -286067599#7 -286067599#6 -286067599#4 -286067599#1 -742016387#4 286067598#0 286067598#1 286067598#2 10976958#0 10976958#1 670872012#0 280005152#0 725187180 298298663#0 23182962 32295538#0 -168737311#11 -168737311#2 -311408820#10 -311408820#7 -311408820#4 755022871#0 189099793" >
        <stop busStop="-2786682035" duration="20" until="74.0"/> <!-- None -->
    </route>
    <route id="pt_bus_026:0" edges="715534866#0 715534866#1 717328985#0 -286067599#11 -286067599#7 -286067599#6 -286067599#4 -286067599#1 711888497#0 299654833#0 52493739#0 23183970#0 52493742 52493741#0 23183271#0 168914464#0 23183273#0 380901379#0 32015255#0 32015255#4 571469975#0 571469975#3 741245822#0 741245822#1 741245823#0 741245823#2 741245823#3 741245823#4 741245823#5 601290887#0 601290887#1 601290887#2 601290887#3 601290887#4 601290887#5 601290887#6 601290887#7 482987489#0 482987489#2 482987489#4 482987489#5 482987489#7 722762256" >
        <stop busStop="-2786682035" duration="20" until="69.0"/> <!-- None -->
    </route>
    <route id="pt_bus_Ε14:1" color="0,149,200" edges="221139568 221139568-AddedOffRampEdge 298744689 23182816 -170993800#2 -917873078 -259803253 -972690969 -909651170#1 -909651169 -820421378#1 -909651173#2 -909651172 -972690317 284174992#0 169130585 734708564#0 169130603#0 169130590" >
        <stop busStop="-2786691403" duration="20" until="71.0"/> <!-- ΣΥΝΤΑΓΜΑ -->
    </route>
    <route id="pt_bus_550:0" edges="295056178#0 881725977#0 169130603#0 169130590" >
        <stop busStop="2560629699" duration="20" until="52.0"/> <!-- ΠΙΝΑΚΟΘΗΚΗ -->
    </route>
    <route id="pt_bus_227:0" edges="221139568 221139568-AddedOffRampEdge 298744689 5656636#0 624053070 87082469 687831199#0 167920360#0 167920360#1 23182965#0 207979569#0 207979569#3 168914464#0 167907746#0 704293238 23183369#0 1098886968#0 10976954#0 742016387#0 286067599#0 286067599#2 286067599#6 286067599#7 286067599#8 -717328985#3 -715534866#1 -715534866#0" >
        <stop busStop="1792445580" duration="20" until="138.0"/> <!-- None -->
    </route>
    <route id="pt_bus_856:0" edges="221139568 221139568-AddedOffRampEdge 298744689 5656636#0 624053070 87082469 687831199#0 167920360#0 167920360#1 23182965#0 207979566#0 23182796#0 23182796#3 734707701#9 299510181#0 299510181#3 299510181#5 299510181#8 259803255#0 259803255#2 601290889#0 601290889#4 601290889#6 601290889#8 601303883#0 299658207 49288906 10971766#0 10971766#2 10741747#0 222897513#0 222941080#6 972965169 10976960#3 10976960#8 250756985#0 -670872012#2 -589664316#3 -741087755" >
        <stop busStop="1792445580" duration="20" until="73.0"/> <!-- None -->
    </route>
    <route id="pt_bus_057:0" edges="741087755 589664316#0 670872012#0 280005152#0 725187180 298298663#0 23182962 32295538#0 189063911#0 24218743 168725549#0 23184691#0 741087752 286070634#0" >
        <stop busStop="3459098893" duration="20" until="59.0"/> <!-- None -->
    </route>
    <route id="pt_bus_Α7_ΚΗΦΙΣΙΑ_(ΠΛ.ΠΛΑΤΑΝΟΥ)_-_ΣΤΟΥΡΝΑΡΗ:0" edges="260124785 702087350 755022871#0" >
        <stop busStop="2656090022" duration="20" until="50.0"/> <!-- ΣΤΟΥΡΝΑΡΗ -->
    </route>
    <route id="pt_bus_054:0" edges="260124785 702087350 311408820#0 311408820#5 311408820#8 168737311#0 168737311#3 189063911#0 24218743 977757273 762514801#0 762514801#3 741733384#0 260824573#0 260824573#3 189099793" >
        <stop busStop="1997103900" duration="20" until="95.0"/> <!-- None -->
    </route>
    <route id="pt_bus_021:0" edges="10971765" >
        <stop busStop="2858090709" duration="20" until="40.0"/> <!-- ΠΛ. ΚΑΝΙΓΓΟΣ -->
    </route>
    <route id="pt_bus_221:0" edges="5728512 922515462#0 922515458#0 170644476#0 659991805#0 167907745#0" >
        <stop busStop="1818038857" duration="20" until="111.0"/> <!-- ΧΙΛΤΟΝ -->
    </route>
    <route id="pt_bus_838:0" edges="741087755 589664316#0 670872012#0 280005152#0 725187180 977757276 760848368#0 286067598#0 286067598#1 286067598#2 286067598#4" >
        <stop busStop="3940829188" duration="20" until="108.0"/> <!-- None -->
    </route>
    <route id="pt_bus_Α2:1" edges="221139568 221139568-AddedOffRampEdge 298744689 5656636#0 624053070 87082469 687831199#0 167920360#0 167920360#1 23182965#0 207979569#0 207979569#3 168914464#0 23183273#0" >
        <stop busStop="1792445580" duration="20" until="79.0"/> <!-- None -->
    </route>
    <route id="pt_bus_035:1" edges="715534866#0 715534866#1 717328985#0 -286067599#11 -286067599#7 -286067599#6 -286067599#4 -286067599#1 -742016387#4 286067598#0 286067598#1 286067598#2 10976958#0 10976958#1 670872012#0 280005152#0 725187180 298298663#0 23182962 32295538#0 -168737311#11 -168737311#2 -311408820#10 -311408820#7 -311408820#4 755022871#0 189099793" >
        <stop busStop="-2786682035" duration="20" until="66.0"/> <!-- None -->
    </route>
    <route id="pt_bus_Β11:1" edges="10741754#0 222897512#0 222897512#2 741033482" >
        <stop busStop="2672706268" duration="20" until="98.0"/> <!-- ΑΦΕΤΗΡΙΑ -->
    </route>
    <route id="pt_bus_Α11:0" edges="741033482 82682796#0 82682796#1 384593007 54700033#0" >
        <stop busStop="2672706268" duration="20" until="39.0"/> <!-- ΑΦΕΤΗΡΙΑ -->
    </route>
    <route id="pt_bus_Β11:0" edges="741033482 82682796#0 82682796#1 384593007 54700033#0" >
        <stop busStop="2672706268" duration="20" until="72.0"/> <!-- ΑΦΕΤΗΡΙΑ -->
    </route>
    <route id="pt_bus_204B:0" edges="49288908#0 734707701#2 734707701#3 734707701#6 734707701#7 734707701#9 299510181#0 299510181#3 299510181#5 299510181#8 259803254#0 168914459#0 751068056 168914458#0 299510529#0 299644700#0 299644700#2 299644700#5 299644700#7 299644700#8 298828555#0 170993800#0 227444705#0 167920360#0 167920360#1 23182965#0 207979566#0 299644700#0 299644700#2 299644700#5 299644700#7 299644700#8 298828555#0 -917873078 -259803253 -972690969 -909651170#1 -909651169 -820421378#1 -909651173#2 -909651172 -972690317" >
        <stop busStop="2652597221" duration="20" until="40.0"/> <!-- ΚΑΝΑΡΗ -->
        <stop busStop="2652597231" duration="20" until="153.0"/> <!-- ΝΟΜΙΚΗ -->
        <stop busStop="1792445580" duration="20" until="358.0"/> <!-- None -->
    </route>
    <route id="pt_bus_813:0" edges="741087755 589664316#0 670872012#0 280005152#0 725187180 298298663#0 23182962 189063912#0 207971475#0 207971475#1 51249283 225906204#0 225906203 -168904430 23183371#0 23183371#4 260124787#0 601290888#0 601290888#3 601290888#5 601290888#7 601290888#9 601290886#0 601290886#2 601290886#3 601290886#4 601290886#5 601290886#6 601290886#7 601290886#8 601290886#10 601290886#11" >
        <stop busStop="1800860234" duration="20" until="114.0"/> <!-- None -->
        <stop busStop="1800860243" duration="20" until="211.0"/> <!-- ΝΑΥΑΡΙΝΟΥ -->
        <stop busStop="1800860231" duration="20" until="284.0"/> <!-- ΑΡΑΧΩΒΗΣ -->
        <stop busStop="1800860238" duration="20" until="341.0"/> <!-- ΚΑΛΛΙΔΡΟΜΙΟΥ -->
        <stop busStop="1800860250" duration="20" until="404.0"/> <!-- ΤΣΙΜΙΣΚΗ -->
    </route>
    <route id="pt_trolleybus_6:0" color="yellow" edges="762514801#3 741733384#0 260824573#0 260824573#3 189099792#0 10741751#0" >
        <stop busStop="1956880737" duration="20" until="40.0"/> <!-- None -->
    </route>
    <route id="pt_trolleybus_12:1" color="yellow" edges="741087755 589664316#0 670872012#0 280005152#0 725187180 298298663#0 23182962 189063912#0 207971475#0 207971475#1 284241336#0 284241336#5 52493742 52493741#0 704293239#0 299506410#0 207979572#0 23182767#0 23182987#0" >
        <stop busStop="3459098893" duration="20" until="51.0"/> <!-- None -->
    </route>
    <route id="pt_bus_227:1" edges="715534866#0 715534866#1 717328985#0 -286067599#11 -286067599#7 -286067599#6 -286067599#4 -286067599#1 711888497#0 299654833#0 52493739#0 23183970#0 52493742 52493741#0 704293239#0 299506410#0 207979572#0 23182767#0 23182987#0" >
        <stop busStop="-2786682035" duration="20" until="83.0"/> <!-- None -->
    </route>
    <route id="pt_bus_856:1" edges="741087755 589664316#0 670872012#0 280005152#0 725187180 298298663#0 23182962 189063912#0 207971475#0 207971475#1 284241336#0 284241336#5 52493742 52493741#0 704293239#0 299506410#0 207979572#0 23182767#0 23182990#0" >
        <stop busStop="2512113609" duration="20" until="126.0"/> <!-- None -->
    </route>
    <route id="pt_bus_040:1" edges="23182987#0" >
        <stop busStop="2786692509" duration="20" until="39.0"/> <!-- ΣΥΝΤΑΓΜΑ -->
    </route>
    <route id="pt_bus_224:0" edges="260124785 702087350 311408820#0 311408820#5 311408820#8 23182806#0 52493441#0 52493436#0 52493436#5 52493436#8 52493436#12 260124786#0 260124786#2 168914459#0 751068056 168914458#0 299510529#0 299644700#0 299644700#2 299644700#5 299644700#7 299644700#8 298828555#0 -917873078 -259803253 -972690969 -909651170#1 -909651169 -820421378#1 -909651173#2 -909651172 -972690317 284174992#0 169130585 734708564#0 659991805#0 167907745#0" >
        <stop busStop="1613240806" duration="20" until="119.0"/> <!-- ΠΛ.ΚΑΝΙΓΓΟΣ -->
        <stop busStop="1799562372" duration="20" until="215.0"/> <!-- ΖΩΟΔ.ΠΗΓΗΣ -->
    </route>
    <route id="pt_bus_250:0" edges="295056177#0 881725975#0 284174992#0 169130585 734708564#0 659991805#0 167907745#0" >
        <stop busStop="6644789228" duration="20" until="45.0"/> <!-- ΕΥΑΓΓΕΛΙΣΜΟΣ -->
    </route>
    <route id="pt_bus_Α3:0" edges="221139568 221139568-AddedOffRampEdge 298744689 5656636#0 624053070 87082469 687831199#0 167920360#0 167920360#1 23182965#0 207979569#0 207979569#3 168914464#0 23183273#0 380901379#0 751068056" >
        <stop busStop="1792445580" duration="20" until="111.0"/> <!-- None -->
    </route>
    <route id="pt_bus_Γ12:0" edges="10741754#0 222899032#0 222899032#1 284503674#0 972965170#0 32245113#0 741733384#0 260824573#0 260824573#3 189099792#0 10741751#0" >
        <stop busStop="1997456424" duration="20" until="175.0"/> <!-- ΣΤΟΥΡΝΑΡΗ -->
    </route>
    <route id="pt_bus_230:1" edges="634252645#0 634252645#1 634252645#2 634252645#5 634252645#7 634252645#10 634252645#11 634252645#12 634252645#13 634252645#14 299514252#0 299514252#1 299514252#2 299514252#4 299514252#5 299514252#6 299514252#9 299514252#10 299514252#13 61093639#0 571469976#0 762793106#0 762793106#2 762793106#3 23182798#0 299510180#0 299510529#0 299644700#0 299644700#2 299644700#5 299644700#7 299644700#8 298828555#0 170993800#0 5728492#0 87082472 560974709" >
        <stop busStop="1800990636" duration="20" until="75.0"/> <!-- ΛΑΣΚΑΡΕΩΣ -->
        <stop busStop="1800990687" duration="20" until="143.0"/> <!-- ΤΣΙΜΙΣΚΗ -->
        <stop busStop="1800990635" duration="20" until="202.0"/> <!-- ΚΑΛΛΙΔΡΟΜΙΟΥ -->
        <stop busStop="1800990612" duration="20" until="258.0"/> <!-- ΔΙΔΟΤΟΥ -->
    </route>
    <route id="pt_bus_025:0" edges="634252645#0 634252645#1 634252645#2 634252645#5 634252645#7 634252645#10 634252645#11 634252645#12 634252645#13 634252645#14 299514252#0 299514252#1 299514252#2 299514252#4 299514252#5 299514252#6 299514252#9 299514252#10 299514252#13 299514252#16 259803254#0 168914460 704293238 23183369#0 1098886968#0 10976954#0 742016387#0 286067599#0 286067599#2 286067599#6 286067599#7 286067599#8 -717328985#3 -715534866#1 -715534866#0" >
        <stop busStop="1800990636" duration="20" until="77.0"/> <!-- ΛΑΣΚΑΡΕΩΣ -->
    </route>
    <route id="pt_bus_622:0" edges="260124785 702087350 311408820#0 311408820#5 311408820#8 23182806#0 52493441#0 52493436#0 52493436#5 52493436#8 52493436#12 260124786#0 260124786#2 168914459#0 751068056 168914458#0 299510529#0 299644700#0 299644700#2 299644700#5 299644700#7 299644700#8 298828555#0 -917873078 -259803253 -972690969 -909651170#1 -909651169 -820421378#1 -909651173#2 -909651172 -972690317 284174992#0 169130585 734708564#0 659991805#0 169130582#0 922515461#0" >
        <stop busStop="1613240806" duration="20" until="149.0"/> <!-- ΠΛ.ΚΑΝΙΓΓΟΣ -->
    </route>
    <route id="pt_bus_040:0" edges="221139568 221139568-AddedOffRampEdge 81916368#0 87082463 87082462#0-AddedOnRampEdge 87082462#0 789796814 23182767#0 23182987#0" >
        <stop busStop="2786692509" duration="20" until="84.0"/> <!-- ΣΥΝΤΑΓΜΑ -->
    </route>
    <route id="pt_bus_026:1" edges="634252645#0 634252645#1 634252645#2 634252645#5 634252645#7 634252645#10 634252645#11 634252645#12 634252645#13 634252645#14 299514252#0 299514252#1 299514252#2 299514252#4 299514252#5 299514252#6 299514252#9 299514252#10 299514252#13 299514252#16 259803254#0 168914460 704293238 23183369#0 1098886968#0 10976954#0 742016387#0 286067599#0 286067599#2 286067599#6 286067599#7 286067599#8 -717328985#3 -715534866#1 -715534866#0" >
        <stop busStop="1800990636" duration="20" until="104.0"/> <!-- ΛΑΣΚΑΡΕΩΣ -->
    </route>
    <route id="pt_subway_Μ1:0" color="0,122,51" edges="86322959 86322965#1 86322965#2 86322965#3 86322965#4" >
        <stop busStop="9666216520" duration="20" until="44.0"/> <!-- Μοναστηράκι -->
        <stop busStop="5396738090" duration="20" until="117.0"/> <!-- Ομόνοια -->
    </route>
    <route id="pt_bus_049:1" edges="760848368#0 286067598#0 286067598#1 286067598#2 286067598#4" >
        <stop busStop="3940829188" duration="20" until="51.0"/> <!-- None -->
    </route>
    <route id="pt_trolleybus_12:0" color="yellow" edges="221139568 221139568-AddedOffRampEdge 298744689 5656636#0 624053070 87082469 687831199#0 167920360#0 167920360#1 23182965#0 207979566#0 23182796#0 23182796#3 734707701#9 299510181#0 299510181#3 299510181#5 299510181#8 259803255#0 259803255#2 601290889#0 601290889#4 601290889#6 601290889#8 601303883#0 299658207 49288906 10971766#0 10971766#2 10741747#0 222897513#0 222941080#6 85392263#0 85392263#1 10741758#1 10741722#0 10741722#2 10741722#3 286070634#0" >
        <stop busStop="1792445580" duration="20" until="133.0"/> <!-- None -->
    </route>
    <route id="pt_bus_Χ95_ΣΥΝΤΑΓΜΑ_-_ΑΕΡΟΛ._ΑΘΗΝΩΝ_(EXPRESS):0" edges="23182990#0 221139568 221139568-AddedOffRampEdge 298744689 23182816 -170993800#2 -917873078 -259803253 -972690969 -909651170#1 -909651169 -820421378#1 -909651173#2 -909651172 -972690317 284174992#0 169130585 734708564#0 169130603#0 169130590" >
        <stop busStop="12668841452" duration="20" until="44.0"/> <!-- ΣΥΝΤΑΓΜΑ -->
    </route>
    <route id="pt_bus_Χ14_ΚΗΦΙΣΙΑ_-_ΣΥΝΤΑΓΜΑ:0" edges="167920332#0 167920332#1 221211079 52493502#0 170644475#0 52493497#0 909651168 789786774 909651173#0 820421378#0 909651169 909651170#0 295056184#0 259803253 830255108#0 170993800#0 5728492#0 87082472 560974709 87082462#0-AddedOnRampEdge 87082462#0 789796814 23182767#0 23182987#0" >
        <stop busStop="1792445582" duration="20" until="86.0"/> <!-- ΝΟΣΟΚΟΜΕΙΟ ΕΥΑΓΓΕΛΙΣΜΟΣ -->
    </route>
    <route id="pt_trolleybus_15:1" color="yellow" edges="260124785 702087350 311408820#0 311408820#5 311408820#8 168737311#0 168737311#3 32295709 207971475#0 207971475#1 284241336#0 284241336#5 52493742 52493741#0 704293239#0 299506410#0 207979572#0 23182767#0 23182987#0" >
        <stop busStop="2515049716" duration="20" until="40.0"/> <!-- ΠΟΛΥΤΕΧΝΕΙΟ -->
    </route>
    <route id="pt_bus_608:0" edges="260124785 702087350 311408820#0 311408820#5 311408820#8 23182806#0 52493441#0 52493436#0 52493436#5 52493436#8 52493436#12 260124786#0 260124786#2 168914459#0 751068056 168914458#0 299510529#0 299644700#0 299644700#2 299644700#5 299644700#7 299644700#8 298828555#0 -917873078 -259803253 -972690969 -909651170#1 -909651169 -820421378#1 -909651173#2 -909651172 -972690317 284174992#0 169130585 734708564#0 659991805#0 169130582#0 922515461#0" >
        <stop busStop="1799562372" duration="20" until="174.0"/> <!-- ΖΩΟΔ.ΠΗΓΗΣ -->
        <stop busStop="1792445558" duration="20" until="272.0"/> <!-- None -->
        <stop busStop="1792445581" duration="20" until="505.0"/> <!-- ΝΟΣΟΚΟΜΕΙΟ ΕΥΑΓΓΕΛΙΣΜΟΣ -->
    </route>
    <route id="pt_subway_Μ1:1" color="0,122,51" edges="1051862655 557570459#1 557570459#2 557570459#3 557570459#4" >
        <stop busStop="5396738094" duration="20" until="41.0"/> <!-- Ομόνοια -->
        <stop busStop="97819323" duration="20" until="116.0"/> <!-- Μοναστηράκι -->
    </route>
    <route id="pt_bus_813:1" edges="634252645#0 634252645#1 634252645#2 634252645#5 634252645#7 634252645#10 634252645#11 634252645#12 634252645#13 634252645#14 299514252#0 299514252#1 299514252#2 299514252#4 299514252#5 299514252#6 299514252#9 299514252#10 299514252#13 299514252#16 259803254#0 168914460 704293238 207891571#0 168904430 284241337#0 1101347640#0 189063911#0 24218743 168725549#0 23184691#0 250756985#0 -670872012#2 -589664316#3 -741087755" >
        <stop busStop="1618000514" duration="20" until="214.0"/> <!-- ΡΕΞ -->
    </route>
    <route id="pt_trolleybus_6:1" color="yellow" edges="260124785 702087350 311408820#0 311408820#5 311408820#8 23182806#0 52493441#0 52493436#0 52493436#5 636473899#15 636473899#17 636473899#18 601290889#8 601303883#0 299658207 49288906 10971766#0 10971766#2 311408820#8 168737311#0 32357772#4 762514801#3" >
        <stop busStop="1613240806" duration="20" until="95.0"/> <!-- ΠΛ.ΚΑΝΙΓΓΟΣ -->
    </route>
    <route id="pt_subway_Μ3:2" color="16,6,159" edges="799602878 799602880" >
        <stop busStop="7478372546" duration="20" until="46.0"/> <!-- Μοναστηράκι -->
        <stop busStop="7478372558" duration="20" until="119.0"/> <!-- Σύνταγμα -->
        <stop busStop="7478372569" duration="20" until="203.0"/> <!-- Ευαγγελισμός -->
    </route>
    <route id="pt_trolleybus_2:0" color="yellow" edges="260124785 702087350 311408820#0 311408820#5 311408820#8 168737311#0 168737311#3 32295709 207971475#0 207971475#1 284241336#0 284241336#5 52493742 52493741#0 704293239#0 299506410#0 207979572#0 23182767#0 23182987#0" >
        <stop busStop="2515049716" duration="20" until="36.0"/> <!-- ΠΟΛΥΤΕΧΝΕΙΟ -->
    </route>
    <route id="pt_bus_11:0" color="yellow" edges="260124785 702087350 311408820#0 311408820#5 311408820#8 168737311#0 168737311#3 32295709 207971475#0 207971475#1 284241336#0 284241336#5 52493742 52493741#0 704293239#0 299506410#0 207979572#0 23182767#0 23182987#0" >
        <stop busStop="2515049716" duration="20" until="51.0"/> <!-- ΠΟΛΥΤΕΧΝΕΙΟ -->
    </route>
    <route id="pt_bus_230:0" edges="221139568 221139568-AddedOffRampEdge 298744689 5656636#0 624053070 87082469 687831199#0 167920360#0 167920360#1 23182965#0 207979569#0 207979569#3 168914464#0 167907746#0 704293238 207891571#0 23183371#0 23183371#4 260124787#0 601290888#0 601290888#3 601290888#5 601290888#7 601290888#9 601290886#0 601290886#2 601290886#3 601290886#4 601290886#5 601290886#6 601290886#7 601290886#8 601290886#10 601290886#11" >
        <stop busStop="7900407481" duration="20" until="214.0"/> <!-- None -->
        <stop busStop="1800860234" duration="20" until="288.0"/> <!-- None -->
        <stop busStop="1800860243" duration="20" until="381.0"/> <!-- ΝΑΥΑΡΙΝΟΥ -->
        <stop busStop="1800860231" duration="20" until="451.0"/> <!-- ΑΡΑΧΩΒΗΣ -->
        <stop busStop="1800860238" duration="20" until="510.0"/> <!-- ΚΑΛΛΙΔΡΟΜΙΟΥ -->
        <stop busStop="1800860250" duration="20" until="574.0"/> <!-- ΤΣΙΜΙΣΚΗ -->
    </route>
    <route id="pt_bus_224:1" edges="5728512 922515462#0 922515458#0 170644476#0 99060957#0 170644475#0 52493497#0 909651168 789786774 909651173#0 820421378#0 909651169 909651170#0 295056184#0 972690968#0 49288908#0 734707701#2 734707701#3 734707701#6 734707701#7 734707701#9 299510181#0 299510181#3 299510181#5 299510181#8 259803255#0 259803255#2 601290889#0 601290889#4 601290889#6 601290889#8 601303883#0 299658206 10971764 601291176#0 -52080450 10971761" >
        <stop busStop="1818038857" duration="20" until="133.0"/> <!-- ΧΙΛΤΟΝ -->
    </route>