<?xml version="1.0" encoding="UTF-8"?>

<!-- generated on 2025-03-23 20:37:08 by Eclipse SUMO netconvert Version 1.21.0
<netconvertConfiguration xmlns:xsi="http://www.w3.org/2001/XMLSchema-instance" xsi:noNamespaceSchemaLocation="http://sumo.dlr.de/xsd/netconvertConfiguration.xsd">

    <input>
        <type-files value="${SUMO_HOME}\data\typemap\osmNetconvert.typ.xml,${SUMO_HOME}\data\typemap\osmNetconvertAerialway.typ.xml"/>
        <osm-files value="osm_bbox.osm.xml.gz"/>
    </input>

    <output>
        <output-file value="osm.net.xml.gz"/>
        <output.street-names value="true"/>
        <output.original-names value="true"/>
        <ptstop-output value="osm_stops.add.xml"/>
        <ptline-output value="osm_ptlines.xml"/>
    </output>

    <projection>
        <proj.utm value="true"/>
    </projection>

    <processing>
        <geometry.remove value="true"/>
        <roundabouts.guess value="true"/>
    </processing>

    <tls_building>
        <tls.discard-simple value="true"/>
        <tls.join value="true"/>
        <tls.guess-signals value="true"/>
        <tls.default-type value="actuated"/>
    </tls_building>

    <ramp_guessing>
        <ramps.guess value="true"/>
    </ramp_guessing>

    <edge_removal>
        <keep-edges.by-vclass value="passenger,bus,tram,rail_urban,subway,cable_car,rail"/>
    </edge_removal>

    <junctions>
        <junctions.join value="true"/>
        <junctions.corner-detail value="5"/>
    </junctions>

    <railway>
        <railway.topology.repair value="true"/>
    </railway>

</netconvertConfiguration>
-->

<additional xmlns:xsi="http://www.w3.org/2001/XMLSchema-instance" xsi:noNamespaceSchemaLocation="http://sumo.dlr.de/xsd/additional_file.xsd">
    <busStop id="-2786682035" lane="-286067599#6_0" startPos="0.00" endPos="15.00" friendlyPos="true" lines="026 500 035 227 025"/>
    <busStop id="-2786691403" name="ΣΥΝΤΑΓΜΑ" lane="-259803253_0" startPos="6.50" endPos="21.50" friendlyPos="true" lines="Ε14"/>
    <busStop id="-5587467845" name="Σύνταγμα" lane="-589966994_0" startPos="0.00" endPos="25.00" friendlyPos="true">
        <access lane="221139568-AddedOffRampEdge_0" pos="0.00" length="97.53" friendlyPos="1"/>
        <access lane="221139568_0" pos="0.00" length="86.09" friendlyPos="1"/>
        <access lane="23182767#0_0" pos="111.38" length="225.38" friendlyPos="1"/>
        <access lane="23182987#0_0" pos="36.67" length="192.49" friendlyPos="1"/>
        <access lane="23182990#0_0" pos="106.55" length="72.86" friendlyPos="1"/>
    </busStop>
    <busStop id="-7021774778" name="ΣΥΝΤΑΓΜΑ" lane="-972690969_0" startPos="34.70" endPos="59.70" friendlyPos="true" lines="Χ14 ΣΥΝΤΑΓΜΑ - ΚΗΦΙΣΙΑ"/>
    <busStop id="-940327783" name="Σύνταγμα" lane="-459501019_0" startPos="0.00" endPos="25.00" friendlyPos="true">
        <access lane="221139568-AddedOffRampEdge_0" pos="0.00" length="100.21" friendlyPos="1"/>
        <access lane="221139568_0" pos="0.00" length="88.61" friendlyPos="1"/>
        <access lane="23182767#0_0" pos="111.38" length="216.43" friendlyPos="1"/>
        <access lane="23182987#0_0" pos="36.67" length="182.88" friendlyPos="1"/>
        <access lane="23182990#0_0" pos="105.88" length="72.26" friendlyPos="1"/>
    </busStop>
    <busStop id="10572209196" name="ΑΦΕΤΗΡΙΑ - ΣΙΝΑ" lane="327261701#0_0" startPos="27.48" endPos="42.48" friendlyPos="true" lines="022"/>
    <busStop id="11877289039" name="ΧΑΛΚΟΚΟΝΔΥΛΗ" lane="32245113#0_0" startPos="24.76" endPos="39.76" friendlyPos="true" lines="732"/>
    <busStop id="11877289040" name="ΑΦΕΤΗΡΙΑ" lane="32245113#0_0" startPos="60.97" endPos="75.97" friendlyPos="true"/>
    <busStop id="12382526501" name="ΕΦΕΤΕΙΟ" lane="10976960#8_0" startPos="52.23" endPos="67.23" friendlyPos="true"/>
    <busStop id="12668841452" name="ΣΥΝΤΑΓΜΑ" lane="23182990#0_0" startPos="61.11" endPos="76.11" friendlyPos="true" lines="Χ95 ΣΥΝΤΑΓΜΑ - ΑΕΡΟΛ. ΑΘΗΝΩΝ (EXPRESS)"/>
    <busStop id="1459203777" name="ΧΙΛΤΟΝ" lane="169130603#0_0" startPos="114.75" endPos="129.75" friendlyPos="true"/>
    <busStop id="1613240806" name="ΠΛ.ΚΑΝΙΓΓΟΣ" lane="52493441#0_0" startPos="36.24" endPos="51.24" friendlyPos="true" lines="224 622 6 3"/>
    <busStop id="1613243552" name="ΟΜΟΝΟΙΑ" lane="1101347640#0_0" startPos="36.84" endPos="61.84" friendlyPos="true" lines="5"/>
    <busStop id="1618000514" name="ΡΕΞ" lane="284241337#0_0" startPos="39.04" endPos="64.04" friendlyPos="true" lines="608 813 815"/>
    <busStop id="1792445558" lane="751068056_0" startPos="27.60" endPos="42.60" friendlyPos="true" lines="608"/>
    <busStop id="1792445576" name="ΚΗΠΟΣ" lane="909651169_0" startPos="42.22" endPos="57.22" friendlyPos="true"/>
    <busStop id="1792445580" lane="23182965#0_0" startPos="33.29" endPos="48.29" friendlyPos="true" lines="856 227 204B 12 204 Α2 Α3 1"/>
    <busStop id="1792445581" name="ΝΟΣΟΚΟΜΕΙΟ ΕΥΑΓΓΕΛΙΣΜΟΣ" lane="169130585_0" startPos="42.02" endPos="57.02" friendlyPos="true" lines="608"/>
    <busStop id="1792445582" name="ΝΟΣΟΚΟΜΕΙΟ ΕΥΑΓΓΕΛΙΣΜΟΣ" lane="170644475#0_0" startPos="37.92" endPos="52.92" friendlyPos="true" lines="Ε14 235 608 622 Χ14 ΚΗΦΙΣΙΑ - ΣΥΝΤΑΓΜΑ 3"/>
    <busStop id="1792445583" name="ΒΥΖΑΝΤΙΝΟ ΜΟΥΣΕΙΟ - ΡΗΓΙΛΛΗΣ" lane="789786774_0" startPos="0.00" endPos="15.00" friendlyPos="true"/>
    <busStop id="1792445584" name="ΡΗΓΙΛΛΗΣ" lane="820421378#0_0" startPos="52.36" endPos="67.36" friendlyPos="true" lines="608"/>
    <busStop id="1792445592" name="ΣΥΝΤΑΓΜΑ" lane="259803253_0" startPos="19.69" endPos="34.69" friendlyPos="true" lines="608"/>
    <busStop id="1792445596" name="ΧΙΛΤΟΝ" lane="922515461#0_0" startPos="44.96" endPos="59.96" friendlyPos="true"/>
    <busStop id="1799459850" name="ΠΟΛΥΤΕΧΝΕΙΟ" lane="189099793_0" startPos="24.69" endPos="39.69" friendlyPos="true" lines="608"/>
    <busStop id="1799562372" name="ΖΩΟΔ.ΠΗΓΗΣ" lane="52493436#8_0" startPos="64.23" endPos="79.23" friendlyPos="true" lines="224 608"/>
    <busStop id="1800860231" name="ΑΡΑΧΩΒΗΣ" lane="601290888#7_0" startPos="30.58" endPos="45.58" friendlyPos="true" lines="813 230"/>
    <busStop id="1800860234" lane="23183371#0_0" startPos="51.50" endPos="66.50" friendlyPos="true" lines="813 230 815"/>
    <busStop id="1800860238" name="ΚΑΛΛΙΔΡΟΜΙΟΥ" lane="601290886#0_0" startPos="3.26" endPos="18.26" friendlyPos="true" lines="813 230"/>
    <busStop id="1800860243" name="ΝΑΥΑΡΙΝΟΥ" lane="601290888#0_0" startPos="48.15" endPos="63.15" friendlyPos="true" lines="813 230"/>
    <busStop id="1800860250" name="ΤΣΙΜΙΣΚΗ" lane="601290886#5_0" startPos="20.22" endPos="35.22" friendlyPos="true" lines="813 230"/>
    <busStop id="1800990612" name="ΔΙΔΟΤΟΥ" lane="299514252#10_0" startPos="10.51" endPos="25.51" friendlyPos="true" lines="230"/>
    <busStop id="1800990635" name="ΚΑΛΛΙΔΡΟΜΙΟΥ" lane="299514252#4_0" startPos="13.15" endPos="28.15" friendlyPos="true" lines="230"/>
    <busStop id="1800990636" name="ΛΑΣΚΑΡΕΩΣ" lane="634252645#7_0" startPos="1.15" endPos="16.15" friendlyPos="true" lines="230 025 026"/>
    <busStop id="1800990687" name="ΤΣΙΜΙΣΚΗ" lane="634252645#13_0" startPos="17.87" endPos="32.87" friendlyPos="true" lines="230"/>
    <busStop id="1818038840" name="ΑΚΑΔΗΜΙΑΣ" lane="751068056_0" startPos="6.98" endPos="21.98" friendlyPos="true"/>
    <busStop id="1818038857" name="ΧΙΛΤΟΝ" lane="170644476#0_0" startPos="26.01" endPos="41.01" friendlyPos="true" lines="220 221 224"/>
    <busStop id="1956880737" lane="762514801#3_0" startPos="25.59" endPos="50.59" friendlyPos="true" lines="6"/>
    <busStop id="1997103900" lane="189063911#0_0" startPos="20.55" endPos="35.55" friendlyPos="true" lines="054"/>
    <busStop id="1997456424" name="ΣΤΟΥΡΝΑΡΗ" lane="189099792#0_0" startPos="23.11" endPos="38.11" friendlyPos="true" lines="Β9 Γ12"/>
    <busStop id="2181358888" lane="168914460_0" startPos="85.70" endPos="110.70" friendlyPos="true"/>
    <busStop id="2181358913" name="ΑΚΑΔΗΜΙΑΣ" lane="168914459#0_0" startPos="23.50" endPos="38.50" friendlyPos="true"/>
    <busStop id="2182353004" lane="23182767#0_0" startPos="85.60" endPos="100.60" friendlyPos="true"/>
    <busStop id="2182482045" name="ΕΥΡΙΠΙΔΟΥ" lane="711888497#0_0" startPos="132.08" endPos="147.08" friendlyPos="true"/>
    <busStop id="2183589979" lane="299644700#2_0" startPos="0.00" endPos="25.00" friendlyPos="true"/>
    <busStop id="2327652795" name="ΑΦΕΤΗΡΙΑ-ΑΚΑΔΗΜΙΑ" lane="751068056_0" startPos="136.03" endPos="151.03" friendlyPos="true"/>
    <busStop id="2327652835" name="ΑΚΑΔΗΜΙΑΣ" lane="751068056_0" startPos="44.84" endPos="59.84" friendlyPos="true"/>
    <busStop id="2512113609" lane="52493742_0" startPos="2.94" endPos="17.94" friendlyPos="true" lines="856"/>
    <busStop id="2514283308" lane="259803253_0" startPos="0.00" endPos="15.00" friendlyPos="true"/>
    <busStop id="2515049716" name="ΠΟΛΥΤΕΧΝΕΙΟ" lane="260124785_0" startPos="7.61" endPos="32.61" friendlyPos="true" lines="500 4 5 15 11 2"/>
    <busStop id="2560629699" name="ΠΙΝΑΚΟΘΗΚΗ" lane="881725977#0_0" startPos="71.06" endPos="86.06" friendlyPos="true" lines="10 550"/>
    <busStop id="2560629818" name="ΠΙΝΑΚΟΘΗΚΗ" lane="169130609#0_0" startPos="97.59" endPos="112.59" friendlyPos="true" lines="10"/>
    <busStop id="2652597221" name="ΚΑΝΑΡΗ" lane="49288908#0_0" startPos="25.99" endPos="40.99" friendlyPos="true"/>
    <busStop id="2652597231" name="ΝΟΜΙΚΗ" lane="299510181#3_0" startPos="13.36" endPos="28.36" friendlyPos="true"/>
    <busStop id="2656090022" name="ΣΤΟΥΡΝΑΡΗ" lane="755022871#0_0" startPos="60.36" endPos="75.36" friendlyPos="true" lines="Α7 ΚΗΦΙΣΙΑ (ΠΛ.ΠΛΑΤΑΝΟΥ) - ΣΤΟΥΡΝΑΡΗ"/>
    <busStop id="2672706268" name="ΑΦΕΤΗΡΙΑ" lane="741033482_0" startPos="13.91" endPos="28.91" friendlyPos="true" lines="Α11 Β11"/>
    <busStop id="2786680047" name="ΑΓ.ΔΙΟΝΥΣΙΟΣ" lane="1053955141_0" startPos="34.09" endPos="49.09" friendlyPos="true"/>
    <busStop id="2786680211" name="ΑΓ. ΝΙΚΟΛΑΟΣ" lane="741245823#0_0" startPos="64.86" endPos="79.86" friendlyPos="true"/>
    <busStop id="2786680562" lane="286067599#0_0" startPos="22.05" endPos="37.05" friendlyPos="true"/>
    <busStop id="2786680784" name="ΣΟΛΩΝΟΣ" lane="299514252#16_0" startPos="38.04" endPos="53.04" friendlyPos="true"/>
    <busStop id="2786681210" name="ΑΡΙΣΤΕΙΔΟΥ" lane="10976967#0_0" startPos="87.98" endPos="102.98" friendlyPos="true"/>
    <busStop id="2786681597" name="ΑΦΕΤΗΡΙΑ" lane="741087756#1_0" startPos="31.17" endPos="46.17" friendlyPos="true"/>
    <busStop id="2786681834" name="ΒΑΘΗ" lane="82682796#1_0" startPos="10.32" endPos="25.32" friendlyPos="true" lines="051"/>
    <busStop id="2786683214" name="ΔΙΓΕΝΗ ΑΚΡΙΤΑ" lane="482987489#4_0" startPos="40.50" endPos="55.50" friendlyPos="true"/>
    <busStop id="2786683218" name="ΔΙΔΟΤΟΥ" lane="571469975#0_0" startPos="41.21" endPos="56.21" friendlyPos="true"/>
    <busStop id="2786683605" name="ΕΟΤ" lane="23183808#0_0" startPos="19.52" endPos="34.52" friendlyPos="true"/>
    <busStop id="2786683835" name="ΕΥΑΓΓΕΛΙΣΜΟΣ" lane="224026881#2_0" startPos="23.87" endPos="38.87" friendlyPos="true"/>
    <busStop id="2786683844" name="ΕΥΑΓΓΕΛΙΣΜΟΣ" lane="749190996_0" startPos="6.93" endPos="21.93" friendlyPos="true"/>
    <busStop id="2786684319" name="ΗΡΑΚΛΕΙΤΟΥ" lane="299657353#4_0" startPos="0.00" endPos="15.00" friendlyPos="true"/>
    <busStop id="2786684931" name="ΚΑΛΛΙΔΡΟΜΙΟΥ" lane="601290887#2_0" startPos="0.00" endPos="15.00" friendlyPos="true"/>
    <busStop id="2786685051" name="ΚΑΝΑΡΗ" lane="23182848#2_0" startPos="9.80" endPos="24.80" friendlyPos="true"/>
    <busStop id="2786685924" name="ΛΑΣΚΑΡΕΩΣ" lane="482987489#0_0" startPos="19.33" endPos="34.33" friendlyPos="true"/>
    <busStop id="2786686281" name="ΜΑΡΑΣΛΕΙΟΣ" lane="50239848#2_0" startPos="9.65" endPos="24.65" friendlyPos="true"/>
    <busStop id="2786686546" name="ΜΗΤΡΟΠΟΛΗ" lane="318678267#9_0" startPos="31.34" endPos="46.34" friendlyPos="true"/>
    <busStop id="2786686626" name="ΜΟΝΑΣΤΗΡΑΚΙ" lane="86438974#0_0" startPos="57.90" endPos="72.90" friendlyPos="true"/>
    <busStop id="2786686789" name="ΜΠΟΤΑΣΗ" lane="601303883#0_0" startPos="44.24" endPos="59.24" friendlyPos="true"/>
    <busStop id="2786687408" name="ΟΜΗΡΟΥ" lane="299510530#2_0" startPos="66.75" endPos="81.75" friendlyPos="true"/>
    <busStop id="2786688743" name="ΠΛ. ΕΞΑΡΧΕΙΩΝ" lane="601294009#0_0" startPos="5.65" endPos="20.65" friendlyPos="true" lines="035"/>
    <busStop id="2786688910" name="ΠΛΑΤΕΙΑ ΛΑΥΡΙΟΥ" lane="762514801#3_0" startPos="2.71" endPos="17.71" friendlyPos="true"/>
    <busStop id="2786689542" name="ΠΟΛΥΤΕΧΝΕΙΟ" lane="311408820#0_0" startPos="4.39" endPos="19.39" friendlyPos="true"/>
    <busStop id="2786689544" name="ΠΟΛΥΤΕΧΝΕΙΟ" lane="10971761_0" startPos="80.24" endPos="95.24" friendlyPos="true"/>
    <busStop id="2786689547" name="ΠΟΛΥΤΕΧΝΕΙΟ" lane="741721487#0_0" startPos="0.00" endPos="15.00" friendlyPos="true"/>
    <busStop id="2786690531" name="ΣΟΛΩΝΟΣ" lane="32015255#0_0" startPos="69.73" endPos="84.73" friendlyPos="true"/>
    <busStop id="2786692509" name="ΣΥΝΤΑΓΜΑ" lane="23182987#0_0" startPos="21.67" endPos="36.67" friendlyPos="true" lines="040"/>
    <busStop id="2786693394" name="ΤΣΙΜΙΣΚΗ" lane="601290887#5_0" startPos="16.38" endPos="31.38" friendlyPos="true"/>
    <busStop id="2786695223" name="11η ΛΥΚΑΒΗΤΤΟΥ" lane="299665378#0_0" startPos="2.11" endPos="17.11" friendlyPos="true"/>
    <busStop id="2786699649" name="4η ΛΥΚΑΒΗΤΤΟΥ" lane="33878525#0_0" startPos="206.30" endPos="221.30" friendlyPos="true"/>
    <busStop id="2858090709" name="ΠΛ. ΚΑΝΙΓΓΟΣ" lane="10971765_0" startPos="29.03" endPos="44.03" friendlyPos="true" lines="021"/>
    <busStop id="2858093712" name="ΑΚΑΔΗΜΙΑΣ" lane="259803254#0_0" startPos="36.43" endPos="51.43" friendlyPos="true"/>
    <busStop id="3032408237" name="ΖΩΟΔΟΧΟΣ ΠΗΓΗ" lane="601290889#4_0" startPos="17.51" endPos="32.51" friendlyPos="true"/>
    <busStop id="3162773361" name="ΟΜΟΝΟΙΑ" lane="207971475#1_0" startPos="78.70" endPos="103.70" friendlyPos="true"/>
    <busStop id="3182382258" name="ΣΤΑΘΜΟΣ ΕΥΑΓΓΕΛΙΣΜΟΣ" lane="284174992#0_0" startPos="55.37" endPos="70.37" friendlyPos="true"/>
    <busStop id="3459098593" name="ΕΘΝΙΚΟ ΘΕΑΤΡΟ" lane="741087752_0" startPos="65.25" endPos="80.25" friendlyPos="true" lines="051"/>
    <busStop id="3459098694" lane="670872012#0_0" startPos="33.17" endPos="48.17" friendlyPos="true"/>
    <busStop id="3459098893" lane="670872012#0_0" startPos="40.27" endPos="55.27" friendlyPos="true" lines="500 1 21 057 12"/>
    <busStop id="3459200593" lane="23182962_0" startPos="35.27" endPos="50.27" friendlyPos="true" lines="790"/>
    <busStop id="3940080735" lane="977757276_0" startPos="69.51" endPos="84.51" friendlyPos="true" lines="049"/>
    <busStop id="3940829188" lane="760848368#0_0" startPos="142.14" endPos="157.14" friendlyPos="true" lines="838 049"/>
    <busStop id="3940829189" name="ΜΕΝΑΝΔΡΟΥ" lane="286067598#4_0" startPos="25.60" endPos="40.60" friendlyPos="true"/>
    <busStop id="3993816822" name="ΚΛΑΥΘΜΏΝΟΣ" lane="23183970#0_0" startPos="84.32" endPos="99.32" friendlyPos="true"/>
    <busStop id="3993816823" name="ΣΥΝΤΑΓΜΑ" lane="23182767#0_0" startPos="4.16" endPos="29.16" friendlyPos="true"/>
    <busStop id="3993846462" name="ΠΛ.ΚΛΑΥΘΜΩΝΟΣ" lane="52493742_0" startPos="44.82" endPos="59.82" friendlyPos="true"/>
    <busStop id="5396738090" name="Ομόνοια" lane="86322965#4_0" startPos="0.00" endPos="181.13" friendlyPos="true" lines="Μ1">
        <access lane="10741731#3_0" pos="89.92" length="91.96" friendlyPos="1"/>
        <access lane="168725549#0_0" pos="0.00" length="14.24" friendlyPos="1"/>
        <access lane="24218743_0" pos="61.84" length="13.05" friendlyPos="1"/>
        <access lane="762514801#0_0" pos="0.00" length="97.51" friendlyPos="1"/>
        <access lane="977757273_0" pos="0.00" length="1.86" friendlyPos="1"/>
    </busStop>
    <busStop id="5396738094" name="Ομόνοια" lane="1051862655_0" startPos="0.00" endPos="177.19" friendlyPos="true" lines="Μ1">
        <access lane="168725549#0_0" pos="46.88" length="68.69" friendlyPos="1"/>
        <access lane="280005152#0_0" pos="64.72" length="78.06" friendlyPos="1"/>
        <access lane="298298663#0_0" pos="0.00" length="40.81" friendlyPos="1"/>
        <access lane="725187180_0" pos="40.97" length="37.63" friendlyPos="1"/>
        <access lane="977757276_0" pos="0.00" length="45.85" friendlyPos="1"/>
    </busStop>
    <busStop id="5587467845" name="Σύνταγμα" lane="589966994_0" startPos="13.55" endPos="38.55" friendlyPos="true">
        <access lane="221139568-AddedOffRampEdge_0" pos="0.00" length="97.53" friendlyPos="1"/>
        <access lane="221139568_0" pos="0.00" length="86.09" friendlyPos="1"/>
        <access lane="23182767#0_0" pos="111.38" length="225.38" friendlyPos="1"/>
        <access lane="23182987#0_0" pos="36.67" length="192.49" friendlyPos="1"/>
        <access lane="23182990#0_0" pos="106.55" length="72.86" friendlyPos="1"/>
    </busStop>
    <busStop id="638591274" lane="50239780#0_0" startPos="0.00" endPos="15.00" friendlyPos="true"/>
    <busStop id="6612965229" name="ΑΘΗΝΑΣ" lane="10976954#0_0" startPos="210.35" endPos="225.35" friendlyPos="true"/>
    <busStop id="6612965236" name="ΜΑΡΑΣΛΕΙΟΣ" lane="23184151#0_0" startPos="39.14" endPos="54.14" friendlyPos="true"/>
    <busStop id="6612965237" name="ΛΟΥΚΙΑΝΟΥ" lane="573760699#0_0" startPos="105.19" endPos="120.19" friendlyPos="true"/>
    <busStop id="6612965238" name="ΗΡΟΔΟΤΟΥ" lane="391433166#3_0" startPos="43.43" endPos="58.43" friendlyPos="true"/>
    <busStop id="6612965253" name="ΠΛ.ΚΟΛΩΝΑΚΙΟΥ" lane="295059514_0" startPos="29.24" endPos="44.24" friendlyPos="true"/>
    <busStop id="6644789223" name="ΕΥΑΓΓΕΛΙΣΜΟΣ" lane="881725975#0_0" startPos="16.19" endPos="31.19" friendlyPos="true"/>
    <busStop id="6644789228" name="ΕΥΑΓΓΕΛΙΣΜΟΣ" lane="881725975#0_0" startPos="58.69" endPos="73.69" friendlyPos="true" lines="214 203 250"/>
    <busStop id="7137782788" name="ΑΦΕΤΗΡΙΑ - ΡΗΓΑ ΦΕΡΑΙΟΥ" lane="380901379#0_0" startPos="0.00" endPos="15.00" friendlyPos="true" lines="Α2"/>
    <busStop id="7232972014" lane="977757276_0" startPos="27.20" endPos="42.20" friendlyPos="true"/>
    <busStop id="7232972015" lane="760848368#0_0" startPos="137.53" endPos="152.53" friendlyPos="true"/>
    <busStop id="7238938733" lane="286067599#7_0" startPos="0.00" endPos="14.31" friendlyPos="true"/>
    <busStop id="7238938735" lane="286067599#0_0" startPos="25.27" endPos="40.27" friendlyPos="true"/>
    <busStop id="7238938736" lane="760848368#0_0" startPos="31.98" endPos="46.98" friendlyPos="true"/>
    <busStop id="7478322261" name="Ευαγγελισμός" lane="799602875_0" startPos="274.95" endPos="474.95" friendlyPos="true" lines="Μ3">
        <access lane="169130585_1" pos="0.00" length="16.74" friendlyPos="1"/>
        <access lane="170644475#0_1" pos="105.72" length="31.29" friendlyPos="1"/>
        <access lane="284174992#0_1" pos="101.88" length="15.21" friendlyPos="1"/>
        <access lane="52493494#0_0" pos="58.36" length="42.36" friendlyPos="1"/>
        <access lane="52493497#0_1" pos="0.00" length="30.65" friendlyPos="1"/>
    </busStop>
    <busStop id="7478372529" name="Μοναστηράκι" lane="800265935_0" startPos="1019.12" endPos="1219.12" friendlyPos="true" lines="Μ3">
        <access lane="-715534866#0_0" pos="10.22" length="2.49" friendlyPos="1"/>
        <access lane="-715534866#1_0" pos="29.07" length="32.24" friendlyPos="1"/>
        <access lane="45879106_0" pos="40.26" length="24.27" friendlyPos="1"/>
        <access lane="715534866#0_0" pos="10.45" length="7.29" friendlyPos="1"/>
        <access lane="715534866#1_0" pos="0.00" length="32.96" friendlyPos="1"/>
    </busStop>
    <busStop id="7478372541" name="Σύνταγμα" lane="800265935_0" startPos="152.07" endPos="352.07" friendlyPos="true" lines="Μ3">
        <access lane="221139568-AddedOffRampEdge_0" pos="0.00" length="12.96" friendlyPos="1"/>
        <access lane="221139568_0" pos="0.00" length="8.02" friendlyPos="1"/>
        <access lane="23182990#0_0" pos="106.55" length="36.64" friendlyPos="1"/>
        <access lane="298744689_0" pos="0.00" length="180.05" friendlyPos="1"/>
        <access lane="81916368#0_0" pos="0.00" length="175.59" friendlyPos="1"/>
    </busStop>
    <busStop id="7478372546" name="Μοναστηράκι" lane="799602878_0" startPos="12.20" endPos="212.20" friendlyPos="true" lines="Μ3">
        <access lane="-286067599#11_0" pos="0.00" length="25.81" friendlyPos="1"/>
        <access lane="-717328985#3_0" pos="0.00" length="34.98" friendlyPos="1"/>
        <access lane="286067599#8_0" pos="53.33" length="29.91" friendlyPos="1"/>
        <access lane="717328985#0_0" pos="27.56" length="34.26" friendlyPos="1"/>
        <access lane="86438974#0_0" pos="109.39" length="5.02" friendlyPos="1"/>
    </busStop>
    <busStop id="7478372558" name="Σύνταγμα" lane="799602878_0" startPos="867.10" endPos="1067.10" friendlyPos="true" lines="Μ3">
        <access lane="221139568-AddedOffRampEdge_0" pos="0.00" length="18.10" friendlyPos="1"/>
        <access lane="221139568_0" pos="0.00" length="10.60" friendlyPos="1"/>
        <access lane="23182990#0_0" pos="106.55" length="35.62" friendlyPos="1"/>
        <access lane="298744689_0" pos="0.00" length="185.27" friendlyPos="1"/>
        <access lane="81916368#0_0" pos="0.00" length="180.75" friendlyPos="1"/>
    </busStop>
    <busStop id="7478372569" name="Ευαγγελισμός" lane="799602880_0" startPos="452.47" endPos="652.47" friendlyPos="true" lines="Μ3">
        <access lane="169130585_1" pos="0.00" length="20.86" friendlyPos="1"/>
        <access lane="170644475#0_1" pos="105.72" length="36.22" friendlyPos="1"/>
        <access lane="284174992#0_1" pos="101.88" length="19.63" friendlyPos="1"/>
        <access lane="52493494#0_0" pos="58.36" length="47.60" friendlyPos="1"/>
        <access lane="52493497#0_1" pos="0.00" length="35.67" friendlyPos="1"/>
    </busStop>
    <busStop id="7480417749" name="Πανεπιστήμιο" lane="799826585_0" startPos="754.82" endPos="954.82" friendlyPos="true" lines="Μ2">
        <access lane="167907746#0_0" pos="0.00" length="32.26" friendlyPos="1"/>
        <access lane="168914460_0" pos="156.28" length="159.45" friendlyPos="1"/>
        <access lane="168914464#0_0" pos="125.39" length="2.20" friendlyPos="1"/>
        <access lane="23183273#0_0" pos="0.00" length="31.04" friendlyPos="1"/>
        <access lane="704293238_0" pos="0.00" length="167.67" friendlyPos="1"/>
    </busStop>
    <busStop id="7480417761" name="Ομόνοια" lane="799826585_0" startPos="118.07" endPos="318.07" friendlyPos="true" lines="Μ2">
        <access lane="168725549#0_0" pos="36.74" length="59.04" friendlyPos="1"/>
        <access lane="24218743_0" pos="61.84" length="74.48" friendlyPos="1"/>
        <access lane="298298663#0_0" pos="0.00" length="57.79" friendlyPos="1"/>
        <access lane="725187180_0" pos="40.97" length="57.41" friendlyPos="1"/>
        <access lane="977757276_0" pos="0.00" length="65.03" friendlyPos="1"/>
    </busStop>
    <busStop id="7480425125" name="Σύνταγμα" lane="799826585_0" startPos="1363.14" endPos="1563.14" friendlyPos="true" lines="Μ2">
        <access lane="221139568-AddedOffRampEdge_0" pos="58.19" length="21.99" friendlyPos="1"/>
        <access lane="298744689_0" pos="0.00" length="80.82" friendlyPos="1"/>
        <access lane="624053070_0" pos="0.00" length="89.42" friendlyPos="1"/>
        <access lane="81916368#0_0" pos="0.00" length="73.07" friendlyPos="1"/>
        <access lane="87082463_0" pos="0.00" length="81.18" friendlyPos="1"/>
    </busStop>
    <busStop id="7480425252" name="Σύνταγμα" lane="799826579_0" startPos="25.77" endPos="225.77" friendlyPos="true" lines="Μ2">
        <access lane="221139568-AddedOffRampEdge_0" pos="58.17" length="16.72" friendlyPos="1"/>
        <access lane="298744689_0" pos="0.00" length="80.10" friendlyPos="1"/>
        <access lane="624053070_0" pos="0.00" length="89.08" friendlyPos="1"/>
        <access lane="81916368#0_0" pos="0.00" length="73.65" friendlyPos="1"/>
        <access lane="87082463_0" pos="0.00" length="82.05" friendlyPos="1"/>
    </busStop>
    <busStop id="7480425260" name="Πανεπιστήμιο" lane="799826592_0" startPos="319.85" endPos="519.85" friendlyPos="true" lines="Μ2">
        <access lane="167907746#0_0" pos="0.00" length="32.54" friendlyPos="1"/>
        <access lane="168914460_0" pos="152.80" length="158.91" friendlyPos="1"/>
        <access lane="168914464#0_0" pos="125.48" length="3.06" friendlyPos="1"/>
        <access lane="23183273#0_0" pos="0.00" length="30.37" friendlyPos="1"/>
        <access lane="704293238_0" pos="0.00" length="167.56" friendlyPos="1"/>
    </busStop>
    <busStop id="7480425272" name="Ομόνοια" lane="799826592_0" startPos="959.35" endPos="1159.35" friendlyPos="true" lines="Μ2">
        <access lane="168725549#0_0" pos="30.17" length="55.09" friendlyPos="1"/>
        <access lane="24218743_0" pos="61.84" length="69.57" friendlyPos="1"/>
        <access lane="298298663#0_0" pos="0.00" length="62.93" friendlyPos="1"/>
        <access lane="725187180_0" pos="40.97" length="62.54" friendlyPos="1"/>
        <access lane="977757276_0" pos="0.00" length="70.25" friendlyPos="1"/>
    </busStop>
    <busStop id="7900407481" lane="168914464#0_0" startPos="77.22" endPos="92.22" friendlyPos="true" lines="230 15 11 2 5 790 4"/>
    <busStop id="940327783" name="Σύνταγμα" lane="459501019_0" startPos="13.55" endPos="38.55" friendlyPos="true">
        <access lane="221139568-AddedOffRampEdge_0" pos="0.00" length="100.21" friendlyPos="1"/>
        <access lane="221139568_0" pos="0.00" length="88.61" friendlyPos="1"/>
        <access lane="23182767#0_0" pos="111.38" length="216.43" friendlyPos="1"/>
        <access lane="23182987#0_0" pos="36.67" length="182.88" friendlyPos="1"/>
        <access lane="23182990#0_0" pos="105.88" length="72.26" friendlyPos="1"/>
    </busStop>
    <busStop id="9666216520" name="Μοναστηράκι" lane="86322959_0" startPos="6.53" endPos="206.53" friendlyPos="true" lines="Μ1">
        <access lane="-715534866#1_0" pos="0.00" length="78.97" friendlyPos="1"/>
        <access lane="-717328985#3_0" pos="15.07" length="70.27" friendlyPos="1"/>
        <access lane="715534866#1_0" pos="29.07" length="74.78" friendlyPos="1"/>
        <access lane="717328985#0_0" pos="12.54" length="65.47" friendlyPos="1"/>
        <access lane="86438974#0_0" pos="117.85" length="80.36" friendlyPos="1"/>
    </busStop>
    <busStop id="97819323" name="Μοναστηράκι" lane="557570459#4_0" startPos="531.90" endPos="731.90" friendlyPos="true" lines="Μ1">
        <access lane="193421328_0" pos="49.92" length="114.18" friendlyPos="1"/>
        <access lane="23216541#0_0" pos="0.00" length="147.62" friendlyPos="1"/>
        <access lane="58702689_0" pos="30.56" length="138.36" friendlyPos="1"/>
        <access lane="715534866#0_0" pos="16.33" length="157.46" friendlyPos="1"/>
        <access lane="8181838#0_0" pos="84.58" length="148.73" friendlyPos="1"/>
    </busStop>
</additional>
